
*** ChampSim Multicore Out-of-Order Simulator ***

Warmup Instructions: 25000000
Simulation Instructions: 25000000
Number of CPUs: 1
LLC sets: 2048
LLC ways: 16
Off-chip DRAM Size: 4096 MB Channels: 1 Width: 64-bit Data Rate: 6400 MT/s
CPU 0 runs ../../../../../traces/436.cactusADM-1804B.champsimtrace.xz
.xz
CPU 0 Bimodal branch predictor
BTB has LRU replacement policy
ITLB has LRU replacement policy
DTLB has LRU replacement policy
STLB has LRU replacement policy
L1I has LRU replacement policy
CPU 0 L1D Next-line prefetcher
L1D has LRU replacement policy
L2C has LRU replacement policy
LLC has LRU replacement policy
Heartbeat CPU 0 instructions: 10000000 cycles: 3902523 heartbeat IPC: 2.56244 cumulative IPC: 2.56244 (Simulation time: 0 hr 0 min 20 sec) 
Heartbeat CPU 0 instructions: 20000002 cycles: 7937010 heartbeat IPC: 2.47863 cumulative IPC: 2.51984 (Simulation time: 0 hr 0 min 40 sec) 

Warmup complete CPU 0 instructions: 25000003 cycles: 9883697 (Simulation time: 0 hr 0 min 50 sec) 

Heartbeat CPU 0 instructions: 30000000 cycles: 14922830 heartbeat IPC: 1.43147 cumulative IPC: 0.992234 (Simulation time: 0 hr 1 min 5 sec) 
Heartbeat CPU 0 instructions: 40000003 cycles: 24981781 heartbeat IPC: 0.99414 cumulative IPC: 0.993504 (Simulation time: 0 hr 1 min 34 sec) 
Heartbeat CPU 0 instructions: 50000001 cycles: 36415025 heartbeat IPC: 0.874642 cumulative IPC: 0.942282 (Simulation time: 0 hr 2 min 4 sec) 
Finished CPU 0 instructions: 25000003 cycles: 26531331 cumulative IPC: 0.942282 (Simulation time: 0 hr 2 min 4 sec) 

ChampSim completed all CPUs

Region of Interest Statistics

CPU 0 cumulative IPC: 0.942282 instructions: 25000003 cycles: 26531331
ITLB TOTAL     ACCESS:    4343349  HIT:    4343349  MISS:          0  HIT %:        100  MISS %:          0   MPKI: 0
ITLB LOAD TRANSLATION ACCESS:    4343349  HIT:    4343349  MISS:          0  HIT %:        100  MISS %:          0   MPKI: 0
ITLB PREFETCH  REQUESTED:          0  ISSUED:          0  USEFUL:          0  USELESS:          0
ITLB USEFUL LOAD PREFETCHES:          0 PREFETCH ISSUED TO LOWER LEVEL:          0  ACCURACY: -nan
ITLB TIMELY PREFETCHES:          0 LATE PREFETCHES: 0 DROPPED PREFETCHES: 0
ITLB PREFETCHES SAME FILL-ORIGIN LEVEL: 0 DIFFERENT FILL-ORIGIN LEVEL: 0
ITLB AVERAGE MISS LATENCY: -nan cycles
ITLB RQ	ACCESS:    4925116	FORWARD:          0	MERGED:     581768	TO_CACHE:    4343348

DTLB TOTAL     ACCESS:    7251418  HIT:    6635773  MISS:     615645  HIT %:      91.51  MISS %:    8.48999   MPKI: 24.6258
DTLB LOAD TRANSLATION ACCESS:    7251418  HIT:    6635773  MISS:     615645  HIT %:      91.51  MISS %:    8.48999   MPKI: 24.6258
DTLB PREFETCH  REQUESTED:          0  ISSUED:          0  USEFUL:          0  USELESS:          0
DTLB USEFUL LOAD PREFETCHES:          0 PREFETCH ISSUED TO LOWER LEVEL:          0  ACCURACY: -nan
DTLB TIMELY PREFETCHES:          0 LATE PREFETCHES: 0 DROPPED PREFETCHES: 0
DTLB PREFETCHES SAME FILL-ORIGIN LEVEL: 0 DIFFERENT FILL-ORIGIN LEVEL: 0
DTLB AVERAGE MISS LATENCY: 26.0549 cycles
DTLB RQ	ACCESS:   11770104	FORWARD:          0	MERGED:    4510431	TO_CACHE:    7259673

STLB TOTAL     ACCESS:    3826430  HIT:    3565907  MISS:     260523  HIT %:    93.1915  MISS %:    6.80851   MPKI: 10.4209
STLB LOAD TRANSLATION ACCESS:     615645  HIT:     355122  MISS:     260523  HIT %:    57.6829  MISS %:    42.3171   MPKI: 10.4209
STLB TRANSLATION FROM L1D PREFETCHER ACCESS:    3210785  HIT:    3210785  MISS:          0  HIT %:        100  MISS %:          0   MPKI: 0
STLB PREFETCH  REQUESTED:          0  ISSUED:          0  USEFUL:          0  USELESS:          0
STLB USEFUL LOAD PREFETCHES:          0 PREFETCH ISSUED TO LOWER LEVEL:          0  ACCURACY: -nan
STLB TIMELY PREFETCHES:          0 LATE PREFETCHES: 0 DROPPED PREFETCHES: 0
STLB PREFETCHES SAME FILL-ORIGIN LEVEL: 0 DIFFERENT FILL-ORIGIN LEVEL: 0
STLB AVERAGE MISS LATENCY: 39.8589 cycles
STLB RQ	ACCESS:   18080733	FORWARD:          0	MERGED:   14254303	TO_CACHE:    3826430

STLB Hit, L1D data hit: 0
STLB Hit, L2C data hit: 0
STLB Hit, LLC data hit: 0
STLB Hit, LLC data miss: 0
STLB STLB hints to L2: 0
L1D TOTAL     ACCESS:   29170115  HIT:   28120750  MISS:    1049365  HIT %:    96.4026  MISS %:     3.5974   MPKI: 41.9746
L1D LOAD      ACCESS:    7852515  HIT:    7718828  MISS:     133687  HIT %:    98.2975  MISS %:    1.70247   MPKI: 5.34748
L1D RFO       ACCESS:    3873153  HIT:    3816061  MISS:      57092  HIT %:     98.526  MISS %:    1.47404   MPKI: 2.28368
L1D PREFETCH  ACCESS:   17444447  HIT:   16585861  MISS:     858586  HIT %:    95.0782  MISS %:    4.92183   MPKI: 34.3434
AGUS PREFETCH L1 MISS: 0
L1D PREFETCH  REQUESTED:   55875885  ISSUED:   40617988  USEFUL:     133687  USELESS:     724833
L1D USEFUL LOAD PREFETCHES:     133687 PREFETCH ISSUED TO LOWER LEVEL:     858845  ACCURACY: 15.5659
L1D TIMELY PREFETCHES:     133687 LATE PREFETCHES: 260 DROPPED PREFETCHES: 0
L1D PREFETCHES SAME FILL-ORIGIN LEVEL: 858845 DIFFERENT FILL-ORIGIN LEVEL: 0
L1D AVERAGE MISS LATENCY: 40.8189 cycles
L1D RQ	ACCESS:   12770027	FORWARD:          0	MERGED:    4843364	TO_CACHE:    7854031
L1D WQ	ACCESS:    4203877	FORWARD:     145012	MERGED:     287804	TO_CACHE:    3916073
L1D PQ	ACCESS:   23152900	FORWARD:          0	MERGED:    5615432	TO_CACHE:   17465088

L1D UNIQUE REGIONS ACCESSED: 0
L1D REGIONS CONFLICTS: 0
L1D Cross Page Prefetch Requests: 0
L1D Same Page Prefetch Requests: 40251943
L1D ROI Sum of L1D PQ occupancy: 233549228
L1D PREFETCHES PUSHED FROM L2C: 0
L1I TOTAL     ACCESS:    4925117  HIT:    4925117  MISS:          0  HIT %:        100  MISS %:          0   MPKI: 0
L1I LOAD      ACCESS:    4925117  HIT:    4925117  MISS:          0  HIT %:        100  MISS %:          0   MPKI: 0
L1I PREFETCH  REQUESTED:          0  ISSUED:          0  USEFUL:          0  USELESS:          0
L1I USEFUL LOAD PREFETCHES:          0 PREFETCH ISSUED TO LOWER LEVEL:          0  ACCURACY: -nan
L1I TIMELY PREFETCHES:          0 LATE PREFETCHES: 0 DROPPED PREFETCHES: 0
L1I PREFETCHES SAME FILL-ORIGIN LEVEL: 0 DIFFERENT FILL-ORIGIN LEVEL: 0
L1I AVERAGE MISS LATENCY: -nan cycles
L1I RQ	ACCESS:    7176252	FORWARD:          0	MERGED:    2251136	TO_CACHE:    4925116

BTB TOTAL     ACCESS:      30391  HIT:      30384  MISS:          7  HIT %:     99.977  MISS %:  0.0230331   MPKI: 0.00028
BTB BRANCH_DIRECT_JUMP	ACCESS:        252  HIT:        250  MISS:          2
BTB BRANCH_INDIRECT	ACCESS:          0  HIT:          0  MISS:          0
BTB BRANCH_CONDITIONAL	ACCESS:      30139  HIT:      30134  MISS:          5
BTB BRANCH_DIRECT_CALL	ACCESS:          0  HIT:          0  MISS:          0
BTB BRANCH_INDIRECT_CALL	ACCESS:          0  HIT:          0  MISS:          0
BTB BRANCH_RETURN	ACCESS:          0  HIT:          0  MISS:          0
BTB BRANCH_OTHER ACCESS:          0  HIT:          0  MISS:          0

L2C TOTAL     ACCESS:    1611639  HIT:    1486376  MISS:     125263  HIT %:    92.2276  MISS %:     7.7724   MPKI: 5.01052
L2C LOAD      ACCESS:     133309  HIT:     131821  MISS:       1488  HIT %:    98.8838  MISS %:     1.1162   MPKI: 0.05952
L2C DATA LOAD MPKI: 0.05952
L2C INSTRUCTION LOAD MPKI: 0
L2C RFO       ACCESS:      57060  HIT:      21766  MISS:      35294  HIT %:    38.1458  MISS %:    61.8542   MPKI: 1.41176
L2C PREFETCH  ACCESS:     858819  HIT:     770634  MISS:      88185  HIT %:    89.7318  MISS %:    10.2682   MPKI: 3.5274
AGUS PREFETCH L1 MISS: 0
L2C DATA PREFETCH MPKI: 3.5274
L2C INSTRUCTION PREFETCH MPKI: 0
L2C WRITEBACK ACCESS:      59198  HIT:      59132  MISS:         66  HIT %:    99.8885  MISS %:    0.11149   MPKI: 0.00264
L2C LOAD TRANSLATION ACCESS:     503253  HIT:     503023  MISS:        230  HIT %:    99.9543  MISS %:  0.0457027   MPKI: 0.0092
L2C PREFETCH  REQUESTED:          0  ISSUED:          0  USEFUL:      31599  USELESS:      57675
L2C USEFUL LOAD PREFETCHES:      31599 PREFETCH ISSUED TO LOWER LEVEL:      88185  ACCURACY: 35.8326
L2C TIMELY PREFETCHES:      31599 LATE PREFETCHES: 0 DROPPED PREFETCHES: 0
L2C PREFETCHES SAME FILL-ORIGIN LEVEL: 0 DIFFERENT FILL-ORIGIN LEVEL: 0
L2C AVERAGE MISS LATENCY: 238.581 cycles
L2C RQ	ACCESS:     693772	FORWARD:          0	MERGED:          0	TO_CACHE:     693622
L2C WQ	ACCESS:      59198	FORWARD:        176	MERGED:          0	TO_CACHE:      59198
L2C PQ	ACCESS:     858845	FORWARD:          0	MERGED:          0	TO_CACHE:     858819

L2C Instructions Evicting Data 0
L2C Translations Evicting Data 230
L2C Data Evicting Data 124736
L2C Instructions Evicting Instructions 0
L2C Translations Evicting Instructions 0
L2C Data Evicting Instructions 0
L2C Instructions Evicting Translations 0
L2C Translations Evicting Translations 0
L2C Data Evicting Translations 231
L2C Dense regions hint from L2: 0
PSCL5 TOTAL     ACCESS:     260523  HIT:     260523  MISS:          0  HIT %:        100  MISS %:          0   MPKI: 0
PSCL5 LOAD TRANSLATION ACCESS:     260523  HIT:     260523  MISS:          0  HIT %:        100  MISS %:          0   MPKI: 0
PSCL5 PREFETCH  REQUESTED:          0  ISSUED:          0  USEFUL:          0  USELESS:          0
PSCL5 USEFUL LOAD PREFETCHES:          0 PREFETCH ISSUED TO LOWER LEVEL:          0  ACCURACY: -nan
PSCL5 TIMELY PREFETCHES:          0 LATE PREFETCHES: 0 DROPPED PREFETCHES: 0
PSCL5 PREFETCHES SAME FILL-ORIGIN LEVEL: 0 DIFFERENT FILL-ORIGIN LEVEL: 0

PSCL4 TOTAL     ACCESS:     260523  HIT:     260523  MISS:          0  HIT %:        100  MISS %:          0   MPKI: 0
PSCL4 LOAD TRANSLATION ACCESS:     260523  HIT:     260523  MISS:          0  HIT %:        100  MISS %:          0   MPKI: 0
PSCL4 PREFETCH  REQUESTED:          0  ISSUED:          0  USEFUL:          0  USELESS:          0
PSCL4 USEFUL LOAD PREFETCHES:          0 PREFETCH ISSUED TO LOWER LEVEL:          0  ACCURACY: -nan
PSCL4 TIMELY PREFETCHES:          0 LATE PREFETCHES: 0 DROPPED PREFETCHES: 0
PSCL4 PREFETCHES SAME FILL-ORIGIN LEVEL: 0 DIFFERENT FILL-ORIGIN LEVEL: 0

PSCL3 TOTAL     ACCESS:     260523  HIT:     260523  MISS:          0  HIT %:        100  MISS %:          0   MPKI: 0
PSCL3 LOAD TRANSLATION ACCESS:     260523  HIT:     260523  MISS:          0  HIT %:        100  MISS %:          0   MPKI: 0
PSCL3 PREFETCH  REQUESTED:          0  ISSUED:          0  USEFUL:          0  USELESS:          0
PSCL3 USEFUL LOAD PREFETCHES:          0 PREFETCH ISSUED TO LOWER LEVEL:          0  ACCURACY: -nan
PSCL3 TIMELY PREFETCHES:          0 LATE PREFETCHES: 0 DROPPED PREFETCHES: 0
PSCL3 PREFETCHES SAME FILL-ORIGIN LEVEL: 0 DIFFERENT FILL-ORIGIN LEVEL: 0

PSCL2 TOTAL     ACCESS:     260523  HIT:      17793  MISS:     242730  HIT %:    6.82972  MISS %:    93.1703   MPKI: 9.7092
PSCL2 LOAD TRANSLATION ACCESS:     260523  HIT:      17793  MISS:     242730  HIT %:    6.82972  MISS %:    93.1703   MPKI: 9.7092
PSCL2 PREFETCH  REQUESTED:          0  ISSUED:          0  USEFUL:          0  USELESS:          0
PSCL2 USEFUL LOAD PREFETCHES:          0 PREFETCH ISSUED TO LOWER LEVEL:          0  ACCURACY: -nan
PSCL2 TIMELY PREFETCHES:          0 LATE PREFETCHES: 0 DROPPED PREFETCHES: 0
PSCL2 PREFETCHES SAME FILL-ORIGIN LEVEL: 0 DIFFERENT FILL-ORIGIN LEVEL: 0

LLC TOTAL     ACCESS:     160555  HIT:      35317  MISS:     125238  HIT %:    21.9968  MISS %:    78.0032   MPKI: 5.00952
LLC LOAD      ACCESS:       1488  HIT:          0  MISS:       1488  HIT %:          0  MISS %:        100   MPKI: 0.05952
LLC RFO       ACCESS:      35294  HIT:          0  MISS:      35294  HIT %:          0  MISS %:        100   MPKI: 1.41176
LLC PREFETCH  ACCESS:      88185  HIT:          4  MISS:      88181  HIT %: 0.00453592  MISS %:    99.9955   MPKI: 3.52724
AGUS PREFETCH L1 MISS: 0
LLC WRITEBACK ACCESS:      35358  HIT:      35313  MISS:         45  HIT %:    99.8727  MISS %:    0.12727   MPKI: 0.0018
LLC LOAD TRANSLATION ACCESS:        230  HIT:          0  MISS:        230  HIT %:          0  MISS %:        100   MPKI: 0.0092
LLC PREFETCH  REQUESTED:          0  ISSUED:          0  USEFUL:          0  USELESS:      86001
LLC USEFUL LOAD PREFETCHES:          0 PREFETCH ISSUED TO LOWER LEVEL:      88181  ACCURACY: 0
LLC TIMELY PREFETCHES:          0 LATE PREFETCHES: 0 DROPPED PREFETCHES: 0
LLC PREFETCHES SAME FILL-ORIGIN LEVEL: 0 DIFFERENT FILL-ORIGIN LEVEL: 0
LLC AVERAGE MISS LATENCY: 210.141 cycles
LLC RQ	ACCESS:      37012	FORWARD:          0	MERGED:          0	TO_CACHE:      37012
LLC WQ	ACCESS:      35358	FORWARD:          0	MERGED:          0	TO_CACHE:      35358
LLC PQ	ACCESS:      88185	FORWARD:          0	MERGED:          0	TO_CACHE:      88185

LLC Dense regions hint to LLC: 0

RAW hits: 1745352
Loads Generated: 14515383
Loads sent to L1D: 12770027
Stores Generated: 4203877
Stores sent to L1D: 4203877
Major fault: 0 Minor fault: 2808
Allocated PAGES: 2808
CPU 0 L1D nextline prefetcher final stats
Degree: 5

DRAM Statistics
 CHANNEL 0
 RQ ROW_BUFFER_HIT:      31217  ROW_BUFFER_MISS:      93976
 DBUS_CONGESTED:         70
 WQ ROW_BUFFER_HIT:       4668  ROW_BUFFER_MISS:      32816  FULL:          0

 AVG_CONGESTED_CYCLE: 4
 All warmup complete: 2
Channel 0 Bank busy for read cycles: 0
Channel 0 Bank busy for write cycles: 0
Channel 0
Rank 0
0banks busy for read cycles: 15375644
0banks busy for write cycles: 11581
1banks busy for read cycles: 5049604
1banks busy for write cycles: 1462762
2banks busy for read cycles: 1480845
2banks busy for write cycles: 509792
3banks busy for read cycles: 590185
3banks busy for write cycles: 255098
4banks busy for read cycles: 480962
4banks busy for write cycles: 170565
5banks busy for read cycles: 356187
5banks busy for write cycles: 111795
6banks busy for read cycles: 245211
6banks busy for write cycles: 77648
7banks busy for read cycles: 104402
7banks busy for write cycles: 56343
8banks busy for read cycles: 13203
8banks busy for write cycles: 179505

CPU 0 Branch Prediction Accuracy: 99.1679% MPKI: 0.01024 Average ROB Occupancy at Mispredict: 348.742
Branch types
NOT_BRANCH: 24969238 99.8769%
BRANCH_DIRECT_JUMP: 252 0.001008%
BRANCH_INDIRECT: 0 0%
BRANCH_CONDITIONAL: 30513 0.122052%
BRANCH_DIRECT_CALL: 0 0%
BRANCH_INDIRECT_CALL: 0 0%
BRANCH_RETURN: 0 0%
BRANCH_OTHER: 0 0%

DRAM PAGES: 1048576
Allocated PAGES: 2808
