
*** ChampSim Multicore Out-of-Order Simulator ***

Warmup Instructions: 25000000
Simulation Instructions: 25000000
Number of CPUs: 1
LLC sets: 2048
LLC ways: 16
Off-chip DRAM Size: 4096 MB Channels: 1 Width: 64-bit Data Rate: 6400 MT/s
CPU 0 runs ../../../../../traces/436.cactusADM-1804B.champsimtrace.xz
.xz
CPU 0 Bimodal branch predictor
BTB has LRU replacement policy
ITLB has LRU replacement policy
DTLB has LRU replacement policy
STLB has LRU replacement policy
L1I has LRU replacement policy
CPU 0 L1D Next-line prefetcher
L1D has LRU replacement policy
L2C has LRU replacement policy
LLC has LRU replacement policy
Heartbeat CPU 0 instructions: 10000000 cycles: 3907953 heartbeat IPC: 2.55888 cumulative IPC: 2.55888 (Simulation time: 0 hr 0 min 21 sec) 
Heartbeat CPU 0 instructions: 20000002 cycles: 7948811 heartbeat IPC: 2.47472 cumulative IPC: 2.5161 (Simulation time: 0 hr 0 min 43 sec) 

Warmup complete CPU 0 instructions: 25000003 cycles: 9900767 (Simulation time: 0 hr 0 min 53 sec) 

Heartbeat CPU 0 instructions: 30000000 cycles: 14907900 heartbeat IPC: 1.43697 cumulative IPC: 0.998575 (Simulation time: 0 hr 1 min 8 sec) 
Heartbeat CPU 0 instructions: 40000003 cycles: 24899811 heartbeat IPC: 1.00081 cumulative IPC: 1.00006 (Simulation time: 0 hr 1 min 36 sec) 
Heartbeat CPU 0 instructions: 50000001 cycles: 36292915 heartbeat IPC: 0.877724 cumulative IPC: 0.947251 (Simulation time: 0 hr 2 min 4 sec) 
Finished CPU 0 instructions: 25000003 cycles: 26392151 cumulative IPC: 0.947251 (Simulation time: 0 hr 2 min 4 sec) 

ChampSim completed all CPUs

Region of Interest Statistics

CPU 0 cumulative IPC: 0.947251 instructions: 25000003 cycles: 26392151
ITLB TOTAL     ACCESS:    4340501  HIT:    4340501  MISS:          0  HIT %:        100  MISS %:          0   MPKI: 0
ITLB LOAD TRANSLATION ACCESS:    4340501  HIT:    4340501  MISS:          0  HIT %:        100  MISS %:          0   MPKI: 0
ITLB PREFETCH  REQUESTED:          0  ISSUED:          0  USEFUL:          0  USELESS:          0
ITLB USEFUL LOAD PREFETCHES:          0 PREFETCH ISSUED TO LOWER LEVEL:          0  ACCURACY: -nan
ITLB TIMELY PREFETCHES:          0 LATE PREFETCHES: 0 DROPPED PREFETCHES: 0
ITLB PREFETCHES SAME FILL-ORIGIN LEVEL: 0 DIFFERENT FILL-ORIGIN LEVEL: 0
ITLB AVERAGE MISS LATENCY: -nan cycles
ITLB RQ	ACCESS:    4921139	FORWARD:          0	MERGED:     580639	TO_CACHE:    4340500

DTLB TOTAL     ACCESS:    7249620  HIT:    6633090  MISS:     616530  HIT %:    91.4957  MISS %:    8.50431   MPKI: 24.6612
DTLB LOAD TRANSLATION ACCESS:    7249620  HIT:    6633090  MISS:     616530  HIT %:    91.4957  MISS %:    8.50431   MPKI: 24.6612
DTLB PREFETCH  REQUESTED:          0  ISSUED:          0  USEFUL:          0  USELESS:          0
DTLB USEFUL LOAD PREFETCHES:          0 PREFETCH ISSUED TO LOWER LEVEL:          0  ACCURACY: -nan
DTLB TIMELY PREFETCHES:          0 LATE PREFETCHES: 0 DROPPED PREFETCHES: 0
DTLB PREFETCHES SAME FILL-ORIGIN LEVEL: 0 DIFFERENT FILL-ORIGIN LEVEL: 0
DTLB AVERAGE MISS LATENCY: 24.5824 cycles
DTLB RQ	ACCESS:   11764107	FORWARD:          0	MERGED:    4506216	TO_CACHE:    7257891

STLB TOTAL     ACCESS:    3962479  HIT:    3694303  MISS:     268176  HIT %:    93.2321  MISS %:    6.76788   MPKI: 10.727
STLB LOAD TRANSLATION ACCESS:     616530  HIT:     385145  MISS:     231385  HIT %:    62.4698  MISS %:    37.5302   MPKI: 9.2554
STLB PREFETCH TRANSLATION ACCESS:     140390  HIT:     103600  MISS:      36790  HIT %:    73.7944  MISS %:    26.2056   MPKI: 1.4716
STLB TRANSLATION FROM L1D PREFETCHER ACCESS:    3205559  HIT:    3205558  MISS:          1  HIT %:        100  MISS %: 3.11958e-05   MPKI: 4e-05
STLB PREFETCH  REQUESTED:     483754  ISSUED:     431916  USEFUL:      26620  USELESS:      10146
STLB USEFUL LOAD PREFETCHES:      26620 PREFETCH ISSUED TO LOWER LEVEL:     274287  ACCURACY: 9.70516
STLB TIMELY PREFETCHES:      26620 LATE PREFETCHES: 3846 DROPPED PREFETCHES: 233651
STLB PREFETCHES SAME FILL-ORIGIN LEVEL: 274287 DIFFERENT FILL-ORIGIN LEVEL: 0
STLB AVERAGE MISS LATENCY: 41.5061 cycles
STLB RQ	ACCESS:   18007057	FORWARD:          0	MERGED:   14184967	TO_CACHE:    3822090
STLB PQ	ACCESS:     431916	FORWARD:          0	MERGED:      13886	TO_CACHE:     418030

STLB Hit, L1D data hit: 0
STLB Hit, L2C data hit: 0
STLB Hit, LLC data hit: 0
STLB Hit, LLC data miss: 0
STLB STLB hints to L2: 0
L1D TOTAL     ACCESS:   29089363  HIT:   28030596  MISS:    1058767  HIT %:    96.3603  MISS %:    3.63971   MPKI: 42.3507
L1D LOAD      ACCESS:    7848315  HIT:    7711226  MISS:     137089  HIT %:    98.2533  MISS %:    1.74673   MPKI: 5.48356
L1D RFO       ACCESS:    3871364  HIT:    3814520  MISS:      56844  HIT %:    98.5317  MISS %:    1.46832   MPKI: 2.27376
L1D PREFETCH  ACCESS:   17369684  HIT:   16504850  MISS:     864834  HIT %:     95.021  MISS %:    4.97899   MPKI: 34.5934
AGUS PREFETCH L1 MISS: 0
L1D PREFETCH  REQUESTED:   55780879  ISSUED:   40463498  USEFUL:     133439  USELESS:     731329
L1D USEFUL LOAD PREFETCHES:     133439 PREFETCH ISSUED TO LOWER LEVEL:     865075  ACCURACY: 15.4251
L1D TIMELY PREFETCHES:     133439 LATE PREFETCHES: 239 DROPPED PREFETCHES: 0
L1D PREFETCHES SAME FILL-ORIGIN LEVEL: 865075 DIFFERENT FILL-ORIGIN LEVEL: 0
L1D AVERAGE MISS LATENCY: 40.5765 cycles
L1D RQ	ACCESS:   12766122	FORWARD:          0	MERGED:    4846073	TO_CACHE:    7849952
L1D WQ	ACCESS:    4203877	FORWARD:     135148	MERGED:     289722	TO_CACHE:    3914155
L1D PQ	ACCESS:   23072971	FORWARD:          0	MERGED:    5617393	TO_CACHE:   17390527

L1D UNIQUE REGIONS ACCESSED: 0
L1D REGIONS CONFLICTS: 0
L1D Cross Page Prefetch Requests: 0
L1D Same Page Prefetch Requests: 40208403
L1D ROI Sum of L1D PQ occupancy: 235402491
L1D PREFETCHES PUSHED FROM L2C: 0
L1I TOTAL     ACCESS:    4921140  HIT:    4921140  MISS:          0  HIT %:        100  MISS %:          0   MPKI: 0
L1I LOAD      ACCESS:    4921140  HIT:    4921140  MISS:          0  HIT %:        100  MISS %:          0   MPKI: 0
L1I PREFETCH  REQUESTED:          0  ISSUED:          0  USEFUL:          0  USELESS:          0
L1I USEFUL LOAD PREFETCHES:          0 PREFETCH ISSUED TO LOWER LEVEL:          0  ACCURACY: -nan
L1I TIMELY PREFETCHES:          0 LATE PREFETCHES: 0 DROPPED PREFETCHES: 0
L1I PREFETCHES SAME FILL-ORIGIN LEVEL: 0 DIFFERENT FILL-ORIGIN LEVEL: 0
L1I AVERAGE MISS LATENCY: -nan cycles
L1I RQ	ACCESS:    7169803	FORWARD:          0	MERGED:    2248664	TO_CACHE:    4921139

BTB TOTAL     ACCESS:      30391  HIT:      30384  MISS:          7  HIT %:     99.977  MISS %:  0.0230331   MPKI: 0.00028
BTB BRANCH_DIRECT_JUMP	ACCESS:        252  HIT:        250  MISS:          2
BTB BRANCH_INDIRECT	ACCESS:          0  HIT:          0  MISS:          0
BTB BRANCH_CONDITIONAL	ACCESS:      30139  HIT:      30134  MISS:          5
BTB BRANCH_DIRECT_CALL	ACCESS:          0  HIT:          0  MISS:          0
BTB BRANCH_INDIRECT_CALL	ACCESS:          0  HIT:          0  MISS:          0
BTB BRANCH_RETURN	ACCESS:          0  HIT:          0  MISS:          0
BTB BRANCH_OTHER ACCESS:          0  HIT:          0  MISS:          0

L2C TOTAL     ACCESS:    1870492  HIT:    1745029  MISS:     125463  HIT %:    93.2925  MISS %:    6.70749   MPKI: 5.01852
L2C LOAD      ACCESS:     136711  HIT:     135231  MISS:       1480  HIT %:    98.9174  MISS %:    1.08258   MPKI: 0.0592
L2C DATA LOAD MPKI: 0.0592
L2C INSTRUCTION LOAD MPKI: 0
L2C RFO       ACCESS:      56789  HIT:      21497  MISS:      35292  HIT %:    37.8542  MISS %:    62.1458   MPKI: 1.41168
L2C PREFETCH  ACCESS:     865053  HIT:     776860  MISS:      88193  HIT %:    89.8049  MISS %:    10.1951   MPKI: 3.52772
AGUS PREFETCH L1 MISS: 0
L2C DATA PREFETCH MPKI: 3.52772
L2C INSTRUCTION PREFETCH MPKI: 0
L2C WRITEBACK ACCESS:      58969  HIT:      58911  MISS:         58  HIT %:    99.9016  MISS %:  0.0983568   MPKI: 0.00232
L2C LOAD TRANSLATION ACCESS:     434905  HIT:     434714  MISS:        191  HIT %:    99.9561  MISS %:  0.0439176   MPKI: 0.00764
L2C PREFETCH TRANSLATION ACCESS:     318063  HIT:     317814  MISS:        249  HIT %:    99.9217  MISS %:  0.0782864   MPKI: 0.00996
L2C TRANSLATION FROM L1D PREFETCHER ACCESS:          2  HIT:          2  MISS:          0  HIT %:        100  MISS %:          0   MPKI: 0
L2C PREFETCH  REQUESTED:          0  ISSUED:          0  USEFUL:      32093  USELESS:      57439
L2C USEFUL LOAD PREFETCHES:      32093 PREFETCH ISSUED TO LOWER LEVEL:      88196  ACCURACY: 36.3883
L2C TIMELY PREFETCHES:      32093 LATE PREFETCHES: 0 DROPPED PREFETCHES: 0
L2C PREFETCHES SAME FILL-ORIGIN LEVEL: 0 DIFFERENT FILL-ORIGIN LEVEL: 0
L2C AVERAGE MISS LATENCY: 238.414 cycles
L2C RQ	ACCESS:     946664	FORWARD:          0	MERGED:          0	TO_CACHE:     946470
L2C WQ	ACCESS:      58969	FORWARD:        213	MERGED:          0	TO_CACHE:      58969
L2C PQ	ACCESS:     865075	FORWARD:          0	MERGED:          0	TO_CACHE:     865056

L2C Instructions Evicting Data 0
L2C Translations Evicting Data 440
L2C Data Evicting Data 124523
L2C Instructions Evicting Instructions 0
L2C Translations Evicting Instructions 0
L2C Data Evicting Instructions 0
L2C Instructions Evicting Translations 0
L2C Translations Evicting Translations 0
L2C Data Evicting Translations 442
L2C Dense regions hint from L2: 0
PSCL5 TOTAL     ACCESS:     475710  HIT:     475710  MISS:          0  HIT %:        100  MISS %:          0   MPKI: 0
PSCL5 LOAD TRANSLATION ACCESS:     227542  HIT:     227542  MISS:          0  HIT %:        100  MISS %:          0   MPKI: 0
PSCL5 PREFETCH TRANSLATION ACCESS:     248167  HIT:     248167  MISS:          0  HIT %:        100  MISS %:          0   MPKI: 0
PSCL5 TRANSLATION FROM L1D PREFETCHER ACCESS:          1  HIT:          1  MISS:          0  HIT %:        100  MISS %:          0   MPKI: 0
PSCL5 PREFETCH  REQUESTED:          0  ISSUED:          0  USEFUL:          0  USELESS:          0
PSCL5 USEFUL LOAD PREFETCHES:          0 PREFETCH ISSUED TO LOWER LEVEL:          0  ACCURACY: -nan
PSCL5 TIMELY PREFETCHES:          0 LATE PREFETCHES: 0 DROPPED PREFETCHES: 0
PSCL5 PREFETCHES SAME FILL-ORIGIN LEVEL: 0 DIFFERENT FILL-ORIGIN LEVEL: 0

PSCL4 TOTAL     ACCESS:     438063  HIT:     438063  MISS:          0  HIT %:        100  MISS %:          0   MPKI: 0
PSCL4 LOAD TRANSLATION ACCESS:     227542  HIT:     227542  MISS:          0  HIT %:        100  MISS %:          0   MPKI: 0
PSCL4 PREFETCH TRANSLATION ACCESS:     210520  HIT:     210520  MISS:          0  HIT %:        100  MISS %:          0   MPKI: 0
PSCL4 TRANSLATION FROM L1D PREFETCHER ACCESS:          1  HIT:          1  MISS:          0  HIT %:        100  MISS %:          0   MPKI: 0
PSCL4 PREFETCH  REQUESTED:          0  ISSUED:          0  USEFUL:          0  USELESS:          0
PSCL4 USEFUL LOAD PREFETCHES:          0 PREFETCH ISSUED TO LOWER LEVEL:          0  ACCURACY: -nan
PSCL4 TIMELY PREFETCHES:          0 LATE PREFETCHES: 0 DROPPED PREFETCHES: 0
PSCL4 PREFETCHES SAME FILL-ORIGIN LEVEL: 0 DIFFERENT FILL-ORIGIN LEVEL: 0

PSCL3 TOTAL     ACCESS:     438055  HIT:     438055  MISS:          0  HIT %:        100  MISS %:          0   MPKI: 0
PSCL3 LOAD TRANSLATION ACCESS:     227542  HIT:     227542  MISS:          0  HIT %:        100  MISS %:          0   MPKI: 0
PSCL3 PREFETCH TRANSLATION ACCESS:     210512  HIT:     210512  MISS:          0  HIT %:        100  MISS %:          0   MPKI: 0
PSCL3 TRANSLATION FROM L1D PREFETCHER ACCESS:          1  HIT:          1  MISS:          0  HIT %:        100  MISS %:          0   MPKI: 0
PSCL3 PREFETCH  REQUESTED:          0  ISSUED:          0  USEFUL:          0  USELESS:          0
PSCL3 USEFUL LOAD PREFETCHES:          0 PREFETCH ISSUED TO LOWER LEVEL:          0  ACCURACY: -nan
PSCL3 TIMELY PREFETCHES:          0 LATE PREFETCHES: 0 DROPPED PREFETCHES: 0
PSCL3 PREFETCHES SAME FILL-ORIGIN LEVEL: 0 DIFFERENT FILL-ORIGIN LEVEL: 0

PSCL2 TOTAL     ACCESS:     268989  HIT:      22493  MISS:     246496  HIT %:    8.36205  MISS %:    91.6379   MPKI: 9.85984
PSCL2 LOAD TRANSLATION ACCESS:     266675  HIT:      20179  MISS:     246496  HIT %:    7.56689  MISS %:    92.4331   MPKI: 9.85984
PSCL2 PREFETCH TRANSLATION ACCESS:       2314  HIT:       2314  MISS:          0  HIT %:        100  MISS %:          0   MPKI: 0
PSCL2 PREFETCH  REQUESTED:          0  ISSUED:          0  USEFUL:          0  USELESS:          0
PSCL2 USEFUL LOAD PREFETCHES:          0 PREFETCH ISSUED TO LOWER LEVEL:          0  ACCURACY: -nan
PSCL2 TIMELY PREFETCHES:          0 LATE PREFETCHES: 0 DROPPED PREFETCHES: 0
PSCL2 PREFETCHES SAME FILL-ORIGIN LEVEL: 0 DIFFERENT FILL-ORIGIN LEVEL: 0

LLC TOTAL     ACCESS:     160757  HIT:      35354  MISS:     125403  HIT %:    21.9922  MISS %:    78.0078   MPKI: 5.01612
LLC LOAD      ACCESS:       1480  HIT:          0  MISS:       1480  HIT %:          0  MISS %:        100   MPKI: 0.0592
LLC RFO       ACCESS:      35292  HIT:          0  MISS:      35292  HIT %:          0  MISS %:        100   MPKI: 1.41168
LLC PREFETCH  ACCESS:      88193  HIT:          7  MISS:      88186  HIT %: 0.00793714  MISS %:    99.9921   MPKI: 3.52744
AGUS PREFETCH L1 MISS: 0
LLC WRITEBACK ACCESS:      35352  HIT:      35305  MISS:         47  HIT %:    99.8671  MISS %:   0.132949   MPKI: 0.00188
LLC LOAD TRANSLATION ACCESS:        191  HIT:          0  MISS:        191  HIT %:          0  MISS %:        100   MPKI: 0.00764
LLC PREFETCH TRANSLATION ACCESS:        249  HIT:         42  MISS:        207  HIT %:    16.8675  MISS %:    83.1325   MPKI: 0.00828
LLC PREFETCH  REQUESTED:          0  ISSUED:          0  USEFUL:         36  USELESS:      86208
LLC USEFUL LOAD PREFETCHES:         36 PREFETCH ISSUED TO LOWER LEVEL:      88189  ACCURACY: 0.0408214
LLC TIMELY PREFETCHES:         36 LATE PREFETCHES: 0 DROPPED PREFETCHES: 0
LLC PREFETCHES SAME FILL-ORIGIN LEVEL: 0 DIFFERENT FILL-ORIGIN LEVEL: 0
LLC AVERAGE MISS LATENCY: 210.042 cycles
LLC RQ	ACCESS:      37212	FORWARD:          0	MERGED:          0	TO_CACHE:      37212
LLC WQ	ACCESS:      35352	FORWARD:          0	MERGED:          0	TO_CACHE:      35352
LLC PQ	ACCESS:      88196	FORWARD:          0	MERGED:          0	TO_CACHE:      88196

LLC Dense regions hint to LLC: 0

RAW hits: 1749253
Loads Generated: 14515383
Loads sent to L1D: 12766122
Stores Generated: 4203872
Stores sent to L1D: 4203877
Major fault: 0 Minor fault: 2808
Allocated PAGES: 2808
CPU 0 L1D nextline prefetcher final stats
Degree: 5
CPU 0 STLB arbitrary stride prefetcher final stats

DRAM Statistics
 CHANNEL 0
 RQ ROW_BUFFER_HIT:      31053  ROW_BUFFER_MISS:      94303
 DBUS_CONGESTED:         58
 WQ ROW_BUFFER_HIT:       4695  ROW_BUFFER_MISS:      32764  FULL:          0

 AVG_CONGESTED_CYCLE: 5
 All warmup complete: 2
Channel 0 Bank busy for read cycles: 0
Channel 0 Bank busy for write cycles: 0
Channel 0
Rank 0
0banks busy for read cycles: 15216349
0banks busy for write cycles: 11720
1banks busy for read cycles: 4995696
1banks busy for write cycles: 1471591
2banks busy for read cycles: 1535666
2banks busy for write cycles: 514591
3banks busy for read cycles: 637984
3banks busy for write cycles: 255022
4banks busy for read cycles: 474307
4banks busy for write cycles: 163164
5banks busy for read cycles: 335487
5banks busy for write cycles: 106733
6banks busy for read cycles: 241018
6banks busy for write cycles: 75728
7banks busy for read cycles: 104547
7banks busy for write cycles: 59041
8banks busy for read cycles: 12727
8banks busy for write cycles: 180781

CPU 0 Branch Prediction Accuracy: 99.1679% MPKI: 0.01024 Average ROB Occupancy at Mispredict: 348.742
Branch types
NOT_BRANCH: 24969238 99.8769%
BRANCH_DIRECT_JUMP: 252 0.001008%
BRANCH_INDIRECT: 0 0%
BRANCH_CONDITIONAL: 30513 0.122052%
BRANCH_DIRECT_CALL: 0 0%
BRANCH_INDIRECT_CALL: 0 0%
BRANCH_RETURN: 0 0%
BRANCH_OTHER: 0 0%

DRAM PAGES: 1048576
Allocated PAGES: 2808
