
*** ChampSim Multicore Out-of-Order Simulator ***

Warmup Instructions: 25000000
Simulation Instructions: 25000000
Number of CPUs: 1
LLC sets: 2048
LLC ways: 16
Off-chip DRAM Size: 4096 MB Channels: 1 Width: 64-bit Data Rate: 6400 MT/s
CPU 0 runs ../../../../../traces/436.cactusADM-1804B.champsimtrace.xz
.xz
CPU 0 Bimodal branch predictor
BTB has LRU replacement policy
ITLB has LRU replacement policy
DTLB has LRU replacement policy
STLB has LRU replacement policy
L1I has LRU replacement policy
CPU 0 L1D Next-line prefetcher
L1D has LRU replacement policy
L2C has LRU replacement policy
LLC has LRU replacement policy
Heartbeat CPU 0 instructions: 10000000 cycles: 3902696 heartbeat IPC: 2.56233 cumulative IPC: 2.56233 (Simulation time: 0 hr 0 min 21 sec) 
Heartbeat CPU 0 instructions: 20000002 cycles: 7962424 heartbeat IPC: 2.46322 cumulative IPC: 2.5118 (Simulation time: 0 hr 0 min 42 sec) 

Warmup complete CPU 0 instructions: 25000003 cycles: 9910102 (Simulation time: 0 hr 0 min 53 sec) 

Heartbeat CPU 0 instructions: 30000000 cycles: 15034231 heartbeat IPC: 1.41407 cumulative IPC: 0.975775 (Simulation time: 0 hr 1 min 8 sec) 
Heartbeat CPU 0 instructions: 40000003 cycles: 25257906 heartbeat IPC: 0.978122 cumulative IPC: 0.977338 (Simulation time: 0 hr 1 min 38 sec) 
Heartbeat CPU 0 instructions: 50000001 cycles: 37408964 heartbeat IPC: 0.822973 cumulative IPC: 0.909128 (Simulation time: 0 hr 2 min 9 sec) 
Finished CPU 0 instructions: 25000003 cycles: 27498865 cumulative IPC: 0.909129 (Simulation time: 0 hr 2 min 9 sec) 

ChampSim completed all CPUs

Region of Interest Statistics

CPU 0 cumulative IPC: 0.909129 instructions: 25000003 cycles: 27498865
ITLB TOTAL     ACCESS:    4362902  HIT:    4362902  MISS:          0  HIT %:        100  MISS %:          0   MPKI: 0
ITLB LOAD TRANSLATION ACCESS:    4362902  HIT:    4362902  MISS:          0  HIT %:        100  MISS %:          0   MPKI: 0
ITLB PREFETCH  REQUESTED:          0  ISSUED:          0  USEFUL:          0  USELESS:          0
ITLB USEFUL LOAD PREFETCHES:          0 PREFETCH ISSUED TO LOWER LEVEL:          0  ACCURACY: -nan
ITLB TIMELY PREFETCHES:          0 LATE PREFETCHES: 0 DROPPED PREFETCHES: 0
ITLB PREFETCHES SAME FILL-ORIGIN LEVEL: 0 DIFFERENT FILL-ORIGIN LEVEL: 0
ITLB AVERAGE MISS LATENCY: -nan cycles
ITLB RQ	ACCESS:    4950590	FORWARD:          0	MERGED:     587689	TO_CACHE:    4362901

DTLB TOTAL     ACCESS:    7241628  HIT:    6627241  MISS:     614387  HIT %:    91.5159  MISS %:     8.4841   MPKI: 24.5755
DTLB LOAD TRANSLATION ACCESS:    7241628  HIT:    6627241  MISS:     614387  HIT %:    91.5159  MISS %:     8.4841   MPKI: 24.5755
DTLB PREFETCH  REQUESTED:          0  ISSUED:          0  USEFUL:          0  USELESS:          0
DTLB USEFUL LOAD PREFETCHES:          0 PREFETCH ISSUED TO LOWER LEVEL:          0  ACCURACY: -nan
DTLB TIMELY PREFETCHES:          0 LATE PREFETCHES: 0 DROPPED PREFETCHES: 0
DTLB PREFETCHES SAME FILL-ORIGIN LEVEL: 0 DIFFERENT FILL-ORIGIN LEVEL: 0
DTLB AVERAGE MISS LATENCY: 34.0531 cycles
DTLB RQ	ACCESS:   11788349	FORWARD:          0	MERGED:    4538630	TO_CACHE:    7249719

STLB TOTAL     ACCESS:    4547331  HIT:    3891911  MISS:     655420  HIT %:    85.5867  MISS %:    14.4133   MPKI: 26.2168
STLB LOAD TRANSLATION ACCESS:     614387  HIT:     307294  MISS:     307093  HIT %:    50.0164  MISS %:    49.9836   MPKI: 12.2837
STLB PREFETCH TRANSLATION ACCESS:     754881  HIT:     419078  MISS:     335803  HIT %:    55.5158  MISS %:    44.4842   MPKI: 13.4321
STLB TRANSLATION FROM L1D PREFETCHER ACCESS:    3178063  HIT:    3165539  MISS:      12524  HIT %:    99.6059  MISS %:   0.394077   MPKI: 0.50096
STLB PREFETCH  REQUESTED:    2457548  ISSUED:    1184499  USEFUL:       7522  USELESS:     340481
STLB USEFUL LOAD PREFETCHES:       7522 PREFETCH ISSUED TO LOWER LEVEL:     728752  ACCURACY: 1.03218
STLB TIMELY PREFETCHES:       7522 LATE PREFETCHES: 24 DROPPED PREFETCHES: 392924
STLB PREFETCHES SAME FILL-ORIGIN LEVEL: 728752 DIFFERENT FILL-ORIGIN LEVEL: 0
STLB AVERAGE MISS LATENCY: 42.7246 cycles
STLB RQ	ACCESS:   17854225	FORWARD:          0	MERGED:   14061520	TO_CACHE:    3792705
STLB PQ	ACCESS:    1184499	FORWARD:          0	MERGED:      36449	TO_CACHE:    1148050

STLB Hit, L1D data hit: 0
STLB Hit, L2C data hit: 0
STLB Hit, LLC data hit: 0
STLB Hit, LLC data miss: 0
STLB STLB hints to L2: 0
L1D TOTAL     ACCESS:   28980556  HIT:   27953290  MISS:    1027266  HIT %:    96.4553  MISS %:    3.54467   MPKI: 41.0906
L1D LOAD      ACCESS:    7859017  HIT:    7728045  MISS:     130972  HIT %:    98.3335  MISS %:    1.66652   MPKI: 5.23888
L1D RFO       ACCESS:    3898366  HIT:    3842264  MISS:      56102  HIT %:    98.5609  MISS %:    1.43912   MPKI: 2.24408
L1D PREFETCH  ACCESS:   17223173  HIT:   16382981  MISS:     840192  HIT %:    95.1217  MISS %:    4.87826   MPKI: 33.6077
AGUS PREFETCH L1 MISS: 0
L1D PREFETCH  REQUESTED:   55682314  ISSUED:   40140647  USEFUL:     133463  USELESS:     706662
L1D USEFUL LOAD PREFETCHES:     133463 PREFETCH ISSUED TO LOWER LEVEL:     840400  ACCURACY: 15.8809
L1D TIMELY PREFETCHES:     133463 LATE PREFETCHES: 208 DROPPED PREFETCHES: 0
L1D PREFETCHES SAME FILL-ORIGIN LEVEL: 840400 DIFFERENT FILL-ORIGIN LEVEL: 0
L1D AVERAGE MISS LATENCY: 40.0725 cycles
L1D RQ	ACCESS:   12772707	FORWARD:          0	MERGED:    4842948	TO_CACHE:    7860518
L1D WQ	ACCESS:    4203877	FORWARD:     135507	MERGED:     276046	TO_CACHE:    3927831
L1D PQ	ACCESS:   22900809	FORWARD:          0	MERGED:    5594705	TO_CACHE:   17239838

L1D UNIQUE REGIONS ACCESSED: 0
L1D REGIONS CONFLICTS: 0
L1D Cross Page Prefetch Requests: 0
L1D Same Page Prefetch Requests: 40007542
L1D ROI Sum of L1D PQ occupancy: 248613691
L1D PREFETCHES PUSHED FROM L2C: 0
L1I TOTAL     ACCESS:    4950591  HIT:    4950591  MISS:          0  HIT %:        100  MISS %:          0   MPKI: 0
L1I LOAD      ACCESS:    4950591  HIT:    4950591  MISS:          0  HIT %:        100  MISS %:          0   MPKI: 0
L1I PREFETCH  REQUESTED:          0  ISSUED:          0  USEFUL:          0  USELESS:          0
L1I USEFUL LOAD PREFETCHES:          0 PREFETCH ISSUED TO LOWER LEVEL:          0  ACCURACY: -nan
L1I TIMELY PREFETCHES:          0 LATE PREFETCHES: 0 DROPPED PREFETCHES: 0
L1I PREFETCHES SAME FILL-ORIGIN LEVEL: 0 DIFFERENT FILL-ORIGIN LEVEL: 0
L1I AVERAGE MISS LATENCY: -nan cycles
L1I RQ	ACCESS:    7196167	FORWARD:          0	MERGED:    2245577	TO_CACHE:    4950590

BTB TOTAL     ACCESS:      30391  HIT:      30384  MISS:          7  HIT %:     99.977  MISS %:  0.0230331   MPKI: 0.00028
BTB BRANCH_DIRECT_JUMP	ACCESS:        252  HIT:        250  MISS:          2
BTB BRANCH_INDIRECT	ACCESS:          0  HIT:          0  MISS:          0
BTB BRANCH_CONDITIONAL	ACCESS:      30139  HIT:      30134  MISS:          5
BTB BRANCH_DIRECT_CALL	ACCESS:          0  HIT:          0  MISS:          0
BTB BRANCH_INDIRECT_CALL	ACCESS:          0  HIT:          0  MISS:          0
BTB BRANCH_RETURN	ACCESS:          0  HIT:          0  MISS:          0
BTB BRANCH_OTHER ACCESS:          0  HIT:          0  MISS:          0

L2C TOTAL     ACCESS:    2554300  HIT:    2428995  MISS:     125305  HIT %:    95.0944  MISS %:    4.90565   MPKI: 5.0122
L2C LOAD      ACCESS:     130605  HIT:     129113  MISS:       1492  HIT %:    98.8576  MISS %:    1.14238   MPKI: 0.05968
L2C DATA LOAD MPKI: 0.05968
L2C INSTRUCTION LOAD MPKI: 0
L2C RFO       ACCESS:      56025  HIT:      20732  MISS:      35293  HIT %:    37.0049  MISS %:    62.9951   MPKI: 1.41172
L2C PREFETCH  ACCESS:     840382  HIT:     752204  MISS:      88178  HIT %:    89.5074  MISS %:    10.4926   MPKI: 3.52712
AGUS PREFETCH L1 MISS: 0
L2C DATA PREFETCH MPKI: 3.52712
L2C INSTRUCTION PREFETCH MPKI: 0
L2C WRITEBACK ACCESS:      58349  HIT:      58291  MISS:         58  HIT %:    99.9006  MISS %:  0.0994019   MPKI: 0.00232
L2C LOAD TRANSLATION ACCESS:     604477  HIT:     604406  MISS:         71  HIT %:    99.9883  MISS %:  0.0117457   MPKI: 0.00284
L2C PREFETCH TRANSLATION ACCESS:     849727  HIT:     849515  MISS:        212  HIT %:    99.9751  MISS %:  0.0249492   MPKI: 0.00848
L2C TRANSLATION FROM L1D PREFETCHER ACCESS:      14735  HIT:      14734  MISS:          1  HIT %:    99.9932  MISS %: 0.00678656   MPKI: 4e-05
L2C PREFETCH  REQUESTED:          0  ISSUED:          0  USEFUL:      31242  USELESS:      58101
L2C USEFUL LOAD PREFETCHES:      31242 PREFETCH ISSUED TO LOWER LEVEL:      88178  ACCURACY: 35.4306
L2C TIMELY PREFETCHES:      31242 LATE PREFETCHES: 0 DROPPED PREFETCHES: 0
L2C PREFETCHES SAME FILL-ORIGIN LEVEL: 0 DIFFERENT FILL-ORIGIN LEVEL: 0
L2C AVERAGE MISS LATENCY: 226.961 cycles
L2C RQ	ACCESS:    1655804	FORWARD:          0	MERGED:          0	TO_CACHE:    1655569
L2C WQ	ACCESS:      58349	FORWARD:        253	MERGED:          0	TO_CACHE:      58349
L2C PQ	ACCESS:     840400	FORWARD:          0	MERGED:          0	TO_CACHE:     840382

L2C Instructions Evicting Data 0
L2C Translations Evicting Data 284
L2C Data Evicting Data 124686
L2C Instructions Evicting Instructions 0
L2C Translations Evicting Instructions 0
L2C Data Evicting Instructions 0
L2C Instructions Evicting Translations 0
L2C Translations Evicting Translations 0
L2C Data Evicting Translations 277
L2C Dense regions hint from L2: 0
PSCL5 TOTAL     ACCESS:    1048368  HIT:    1048368  MISS:          0  HIT %:        100  MISS %:          0   MPKI: 0
PSCL5 LOAD TRANSLATION ACCESS:     307093  HIT:     307093  MISS:          0  HIT %:        100  MISS %:          0   MPKI: 0
PSCL5 PREFETCH TRANSLATION ACCESS:     728752  HIT:     728752  MISS:          0  HIT %:        100  MISS %:          0   MPKI: 0
PSCL5 TRANSLATION FROM L1D PREFETCHER ACCESS:      12523  HIT:      12523  MISS:          0  HIT %:        100  MISS %:          0   MPKI: 0
PSCL5 PREFETCH  REQUESTED:          0  ISSUED:          0  USEFUL:          0  USELESS:          0
PSCL5 USEFUL LOAD PREFETCHES:          0 PREFETCH ISSUED TO LOWER LEVEL:          0  ACCURACY: -nan
PSCL5 TIMELY PREFETCHES:          0 LATE PREFETCHES: 0 DROPPED PREFETCHES: 0
PSCL5 PREFETCHES SAME FILL-ORIGIN LEVEL: 0 DIFFERENT FILL-ORIGIN LEVEL: 0

PSCL4 TOTAL     ACCESS:    1048368  HIT:    1048368  MISS:          0  HIT %:        100  MISS %:          0   MPKI: 0
PSCL4 LOAD TRANSLATION ACCESS:     307093  HIT:     307093  MISS:          0  HIT %:        100  MISS %:          0   MPKI: 0
PSCL4 PREFETCH TRANSLATION ACCESS:     728752  HIT:     728752  MISS:          0  HIT %:        100  MISS %:          0   MPKI: 0
PSCL4 TRANSLATION FROM L1D PREFETCHER ACCESS:      12523  HIT:      12523  MISS:          0  HIT %:        100  MISS %:          0   MPKI: 0
PSCL4 PREFETCH  REQUESTED:          0  ISSUED:          0  USEFUL:          0  USELESS:          0
PSCL4 USEFUL LOAD PREFETCHES:          0 PREFETCH ISSUED TO LOWER LEVEL:          0  ACCURACY: -nan
PSCL4 TIMELY PREFETCHES:          0 LATE PREFETCHES: 0 DROPPED PREFETCHES: 0
PSCL4 PREFETCHES SAME FILL-ORIGIN LEVEL: 0 DIFFERENT FILL-ORIGIN LEVEL: 0

PSCL3 TOTAL     ACCESS:    1048368  HIT:    1048368  MISS:          0  HIT %:        100  MISS %:          0   MPKI: 0
PSCL3 LOAD TRANSLATION ACCESS:     307093  HIT:     307093  MISS:          0  HIT %:        100  MISS %:          0   MPKI: 0
PSCL3 PREFETCH TRANSLATION ACCESS:     728752  HIT:     728752  MISS:          0  HIT %:        100  MISS %:          0   MPKI: 0
PSCL3 TRANSLATION FROM L1D PREFETCHER ACCESS:      12523  HIT:      12523  MISS:          0  HIT %:        100  MISS %:          0   MPKI: 0
PSCL3 PREFETCH  REQUESTED:          0  ISSUED:          0  USEFUL:          0  USELESS:          0
PSCL3 USEFUL LOAD PREFETCHES:          0 PREFETCH ISSUED TO LOWER LEVEL:          0  ACCURACY: -nan
PSCL3 TIMELY PREFETCHES:          0 LATE PREFETCHES: 0 DROPPED PREFETCHES: 0
PSCL3 PREFETCHES SAME FILL-ORIGIN LEVEL: 0 DIFFERENT FILL-ORIGIN LEVEL: 0

PSCL2 TOTAL     ACCESS:    1000701  HIT:     627797  MISS:     372904  HIT %:    62.7357  MISS %:    37.2643   MPKI: 14.9162
PSCL2 LOAD TRANSLATION ACCESS:     382613  HIT:       9709  MISS:     372904  HIT %:    2.53755  MISS %:    97.4624   MPKI: 14.9162
PSCL2 PREFETCH TRANSLATION ACCESS:     607777  HIT:     607777  MISS:          0  HIT %:        100  MISS %:          0   MPKI: 0
PSCL2 TRANSLATION FROM L1D PREFETCHER ACCESS:      10311  HIT:      10311  MISS:          0  HIT %:        100  MISS %:          0   MPKI: 0
PSCL2 PREFETCH  REQUESTED:          0  ISSUED:          0  USEFUL:          0  USELESS:          0
PSCL2 USEFUL LOAD PREFETCHES:          0 PREFETCH ISSUED TO LOWER LEVEL:          0  ACCURACY: -nan
PSCL2 TIMELY PREFETCHES:          0 LATE PREFETCHES: 0 DROPPED PREFETCHES: 0
PSCL2 PREFETCHES SAME FILL-ORIGIN LEVEL: 0 DIFFERENT FILL-ORIGIN LEVEL: 0

LLC TOTAL     ACCESS:     160612  HIT:      35335  MISS:     125277  HIT %:    22.0002  MISS %:    77.9998   MPKI: 5.01108
LLC LOAD      ACCESS:       1492  HIT:          0  MISS:       1492  HIT %:          0  MISS %:        100   MPKI: 0.05968
LLC RFO       ACCESS:      35293  HIT:          0  MISS:      35293  HIT %:          0  MISS %:        100   MPKI: 1.41172
LLC PREFETCH  ACCESS:      88178  HIT:          9  MISS:      88169  HIT %:  0.0102066  MISS %:    99.9898   MPKI: 3.52676
AGUS PREFETCH L1 MISS: 0
LLC WRITEBACK ACCESS:      35365  HIT:      35322  MISS:         43  HIT %:    99.8784  MISS %:   0.121589   MPKI: 0.00172
LLC LOAD TRANSLATION ACCESS:         71  HIT:          3  MISS:         68  HIT %:    4.22535  MISS %:    95.7746   MPKI: 0.00272
LLC PREFETCH TRANSLATION ACCESS:        212  HIT:          1  MISS:        211  HIT %:   0.471698  MISS %:    99.5283   MPKI: 0.00844
LLC TRANSLATION FROM L1D PREFETCHER ACCESS:          1  HIT:          0  MISS:          1  HIT %:          0  MISS %:        100   MPKI: 4e-05
LLC PREFETCH  REQUESTED:          0  ISSUED:          0  USEFUL:          4  USELESS:      86221
LLC USEFUL LOAD PREFETCHES:          4 PREFETCH ISSUED TO LOWER LEVEL:      88169  ACCURACY: 0.00453674
LLC TIMELY PREFETCHES:          4 LATE PREFETCHES: 0 DROPPED PREFETCHES: 0
LLC PREFETCHES SAME FILL-ORIGIN LEVEL: 0 DIFFERENT FILL-ORIGIN LEVEL: 0
LLC AVERAGE MISS LATENCY: 198.52 cycles
LLC RQ	ACCESS:      37069	FORWARD:          0	MERGED:          0	TO_CACHE:      37069
LLC WQ	ACCESS:      35365	FORWARD:          0	MERGED:          0	TO_CACHE:      35365
LLC PQ	ACCESS:      88178	FORWARD:          0	MERGED:          0	TO_CACHE:      88178

LLC Dense regions hint to LLC: 0

RAW hits: 1742672
Loads Generated: 14515383
Loads sent to L1D: 12772707
Stores Generated: 4203877
Stores sent to L1D: 4203877
Major fault: 0 Minor fault: 2808
Allocated PAGES: 2808
CPU 0 L1D nextline prefetcher final stats
Degree: 5
CPU 0 STLB arbitrary stride prefetcher final stats

DRAM Statistics
 CHANNEL 0
 RQ ROW_BUFFER_HIT:      30404  ROW_BUFFER_MISS:      94830
 DBUS_CONGESTED:         56
 WQ ROW_BUFFER_HIT:       4965  ROW_BUFFER_MISS:      32499  FULL:          0

 AVG_CONGESTED_CYCLE: 4
 All warmup complete: 2
Channel 0 Bank busy for read cycles: 0
Channel 0 Bank busy for write cycles: 0
Channel 0
Rank 0
0banks busy for read cycles: 15833492
0banks busy for write cycles: 12780
1banks busy for read cycles: 5278174
1banks busy for write cycles: 1607974
2banks busy for read cycles: 1644406
2banks busy for write cycles: 558823
3banks busy for read cycles: 685227
3banks busy for write cycles: 285785
4banks busy for read cycles: 459857
4banks busy for write cycles: 171314
5banks busy for read cycles: 298219
5banks busy for write cycles: 109751
6banks busy for read cycles: 203172
6banks busy for write cycles: 77480
7banks busy for read cycles: 82556
7banks busy for write cycles: 46218
8banks busy for read cycles: 10523
8banks busy for write cycles: 133115

CPU 0 Branch Prediction Accuracy: 99.1679% MPKI: 0.01024 Average ROB Occupancy at Mispredict: 348.738
Branch types
NOT_BRANCH: 24969238 99.8769%
BRANCH_DIRECT_JUMP: 252 0.001008%
BRANCH_INDIRECT: 0 0%
BRANCH_CONDITIONAL: 30513 0.122052%
BRANCH_DIRECT_CALL: 0 0%
BRANCH_INDIRECT_CALL: 0 0%
BRANCH_RETURN: 0 0%
BRANCH_OTHER: 0 0%

DRAM PAGES: 1048576
Allocated PAGES: 2808
