
*** ChampSim Multicore Out-of-Order Simulator ***

Warmup Instructions: 25000000
Simulation Instructions: 25000000
Number of CPUs: 1
LLC sets: 2048
LLC ways: 16
Off-chip DRAM Size: 4096 MB Channels: 1 Width: 64-bit Data Rate: 6400 MT/s
CPU 0 runs ../../../../../traces/436.cactusADM-1804B.champsimtrace.xz
.xz
CPU 0 Bimodal branch predictor
BTB has LRU replacement policy
ITLB has LRU replacement policy
DTLB has LRU replacement policy
STLB has LRU replacement policy
L1I has LRU replacement policy
L1D has LRU replacement policy
L2C has LRU replacement policy
LLC has LRU replacement policy
Heartbeat CPU 0 instructions: 10000000 cycles: 3889168 heartbeat IPC: 2.57124 cumulative IPC: 2.57124 (Simulation time: 0 hr 0 min 19 sec) 
Heartbeat CPU 0 instructions: 20000002 cycles: 7930364 heartbeat IPC: 2.47452 cumulative IPC: 2.52195 (Simulation time: 0 hr 0 min 38 sec) 

Warmup complete CPU 0 instructions: 25000003 cycles: 9875337 (Simulation time: 0 hr 0 min 47 sec) 

Heartbeat CPU 0 instructions: 30000000 cycles: 16385052 heartbeat IPC: 1.18278 cumulative IPC: 0.768082 (Simulation time: 0 hr 1 min 0 sec) 
Heartbeat CPU 0 instructions: 40000002 cycles: 29256758 heartbeat IPC: 0.776898 cumulative IPC: 0.773937 (Simulation time: 0 hr 1 min 26 sec) 
Heartbeat CPU 0 instructions: 50000001 cycles: 45152829 heartbeat IPC: 0.629086 cumulative IPC: 0.708667 (Simulation time: 0 hr 1 min 54 sec) 
Finished CPU 0 instructions: 25000003 cycles: 35277495 cumulative IPC: 0.708667 (Simulation time: 0 hr 1 min 54 sec) 

ChampSim completed all CPUs

Region of Interest Statistics

CPU 0 cumulative IPC: 0.708667 instructions: 25000003 cycles: 35277495
ITLB TOTAL     ACCESS:    4429597  HIT:    4429597  MISS:          0  HIT %:        100  MISS %:          0   MPKI: 0
ITLB LOAD TRANSLATION ACCESS:    4429597  HIT:    4429597  MISS:          0  HIT %:        100  MISS %:          0   MPKI: 0
ITLB PREFETCH  REQUESTED:          0  ISSUED:          0  USEFUL:          0  USELESS:          0
ITLB USEFUL LOAD PREFETCHES:          0 PREFETCH ISSUED TO LOWER LEVEL:          0  ACCURACY: -nan
ITLB TIMELY PREFETCHES:          0 LATE PREFETCHES: 0 DROPPED PREFETCHES: 0
ITLB PREFETCHES SAME FILL-ORIGIN LEVEL: 0 DIFFERENT FILL-ORIGIN LEVEL: 0
ITLB AVERAGE MISS LATENCY: -nan cycles
ITLB RQ	ACCESS:    5010822	FORWARD:          0	MERGED:     581226	TO_CACHE:    4429596

DTLB TOTAL     ACCESS:    7286309  HIT:    6670378  MISS:     615931  HIT %:    91.5467  MISS %:    8.45326   MPKI: 24.6372
DTLB LOAD TRANSLATION ACCESS:    7286309  HIT:    6670378  MISS:     615931  HIT %:    91.5467  MISS %:    8.45326   MPKI: 24.6372
DTLB PREFETCH  REQUESTED:          0  ISSUED:          0  USEFUL:          0  USELESS:          0
DTLB USEFUL LOAD PREFETCHES:          0 PREFETCH ISSUED TO LOWER LEVEL:          0  ACCURACY: -nan
DTLB TIMELY PREFETCHES:          0 LATE PREFETCHES: 0 DROPPED PREFETCHES: 0
DTLB PREFETCHES SAME FILL-ORIGIN LEVEL: 0 DIFFERENT FILL-ORIGIN LEVEL: 0
DTLB AVERAGE MISS LATENCY: 28.1604 cycles
DTLB RQ	ACCESS:   11816771	FORWARD:          0	MERGED:    4522378	TO_CACHE:    7294393

STLB TOTAL     ACCESS:     985262  HIT:     720835  MISS:     264427  HIT %:    73.1618  MISS %:    26.8382   MPKI: 10.5771
STLB LOAD TRANSLATION ACCESS:     615931  HIT:     358400  MISS:     257531  HIT %:    58.1883  MISS %:    41.8117   MPKI: 10.3012
STLB PREFETCH TRANSLATION ACCESS:     369331  HIT:     362435  MISS:       6896  HIT %:    98.1328  MISS %:    1.86716   MPKI: 0.27584
STLB PREFETCH  REQUESTED:    1231862  ISSUED:     963895  USEFUL:       6744  USELESS:        145
STLB USEFUL LOAD PREFETCHES:       6744 PREFETCH ISSUED TO LOWER LEVEL:     466955  ACCURACY: 1.44425
STLB TIMELY PREFETCHES:       6744 LATE PREFETCHES: 4476 DROPPED PREFETCHES: 455583
STLB PREFETCHES SAME FILL-ORIGIN LEVEL: 466955 DIFFERENT FILL-ORIGIN LEVEL: 0
STLB AVERAGE MISS LATENCY: 36.1304 cycles
STLB RQ	ACCESS:     615931	FORWARD:          0	MERGED:          0	TO_CACHE:     615931
STLB PQ	ACCESS:     963895	FORWARD:          0	MERGED:      26996	TO_CACHE:     936899

STLB Hit, L1D data hit: 0
STLB Hit, L2C data hit: 0
STLB Hit, LLC data hit: 0
STLB Hit, LLC data miss: 0
STLB STLB hints to L2: 0
L1D TOTAL     ACCESS:   11795563  HIT:   11600178  MISS:     195385  HIT %:    98.3436  MISS %:    1.65643   MPKI: 7.8154
L1D LOAD      ACCESS:    7887287  HIT:    7727242  MISS:     160045  HIT %:    97.9708  MISS %:    2.02915   MPKI: 6.4018
L1D RFO       ACCESS:    3908276  HIT:    3872936  MISS:      35340  HIT %:    99.0958  MISS %:   0.904235   MPKI: 1.4136
L1D PREFETCH  REQUESTED:          0  ISSUED:          0  USEFUL:          0  USELESS:          0
L1D USEFUL LOAD PREFETCHES:          0 PREFETCH ISSUED TO LOWER LEVEL:          0  ACCURACY: -nan
L1D TIMELY PREFETCHES:          0 LATE PREFETCHES: 0 DROPPED PREFETCHES: 0
L1D PREFETCHES SAME FILL-ORIGIN LEVEL: 0 DIFFERENT FILL-ORIGIN LEVEL: 0
L1D AVERAGE MISS LATENCY: 143.582 cycles
L1D RQ	ACCESS:   12773983	FORWARD:          0	MERGED:    4815994	TO_CACHE:    7888157
L1D WQ	ACCESS:    4203877	FORWARD:      69832	MERGED:     275263	TO_CACHE:    3928614

L1D UNIQUE REGIONS ACCESSED: 0
L1D REGIONS CONFLICTS: 0
L1D Cross Page Prefetch Requests: 0
L1D Same Page Prefetch Requests: 0
L1D ROI Sum of L1D PQ occupancy: 0
L1D PREFETCHES PUSHED FROM L2C: 0
L1I TOTAL     ACCESS:    5010823  HIT:    5010823  MISS:          0  HIT %:        100  MISS %:          0   MPKI: 0
L1I LOAD      ACCESS:    5010823  HIT:    5010823  MISS:          0  HIT %:        100  MISS %:          0   MPKI: 0
L1I PREFETCH  REQUESTED:          0  ISSUED:          0  USEFUL:          0  USELESS:          0
L1I USEFUL LOAD PREFETCHES:          0 PREFETCH ISSUED TO LOWER LEVEL:          0  ACCURACY: -nan
L1I TIMELY PREFETCHES:          0 LATE PREFETCHES: 0 DROPPED PREFETCHES: 0
L1I PREFETCHES SAME FILL-ORIGIN LEVEL: 0 DIFFERENT FILL-ORIGIN LEVEL: 0
L1I AVERAGE MISS LATENCY: -nan cycles
L1I RQ	ACCESS:    7247896	FORWARD:          0	MERGED:    2237074	TO_CACHE:    5010822

BTB TOTAL     ACCESS:      30391  HIT:      30384  MISS:          7  HIT %:     99.977  MISS %:  0.0230331   MPKI: 0.00028
BTB BRANCH_DIRECT_JUMP	ACCESS:        252  HIT:        250  MISS:          2
BTB BRANCH_INDIRECT	ACCESS:          0  HIT:          0  MISS:          0
BTB BRANCH_CONDITIONAL	ACCESS:      30139  HIT:      30134  MISS:          5
BTB BRANCH_DIRECT_CALL	ACCESS:          0  HIT:          0  MISS:          0
BTB BRANCH_INDIRECT_CALL	ACCESS:          0  HIT:          0  MISS:          0
BTB BRANCH_RETURN	ACCESS:          0  HIT:          0  MISS:          0
BTB BRANCH_OTHER ACCESS:          0  HIT:          0  MISS:          0

L2C TOTAL     ACCESS:    1196648  HIT:    1071617  MISS:     125031  HIT %:    89.5516  MISS %:    10.4484   MPKI: 5.00124
L2C LOAD      ACCESS:     160045  HIT:      70643  MISS:      89402  HIT %:    44.1395  MISS %:    55.8605   MPKI: 3.57608
L2C DATA LOAD MPKI: 3.57608
L2C INSTRUCTION LOAD MPKI: 0
L2C RFO       ACCESS:      35340  HIT:          2  MISS:      35338  HIT %: 0.00565931  MISS %:    99.9943   MPKI: 1.41352
L2C WRITEBACK ACCESS:      37001  HIT:      36963  MISS:         38  HIT %:    99.8973  MISS %:     0.1027   MPKI: 0.00152
L2C LOAD TRANSLATION ACCESS:     486972  HIT:     486828  MISS:        144  HIT %:    99.9704  MISS %:  0.0295705   MPKI: 0.00576
L2C PREFETCH TRANSLATION ACCESS:     477290  HIT:     477181  MISS:        109  HIT %:    99.9772  MISS %:  0.0228373   MPKI: 0.00436
L2C PREFETCH  REQUESTED:          0  ISSUED:          0  USEFUL:         89  USELESS:         20
L2C USEFUL LOAD PREFETCHES:         89 PREFETCH ISSUED TO LOWER LEVEL:          0  ACCURACY: inf
L2C TIMELY PREFETCHES:         89 LATE PREFETCHES: 0 DROPPED PREFETCHES: 0
L2C PREFETCHES SAME FILL-ORIGIN LEVEL: 0 DIFFERENT FILL-ORIGIN LEVEL: 0
L2C AVERAGE MISS LATENCY: 205.328 cycles
L2C RQ	ACCESS:    1159648	FORWARD:          0	MERGED:          0	TO_CACHE:    1159648
L2C WQ	ACCESS:      37001	FORWARD:          0	MERGED:          0	TO_CACHE:      37001

L2C Instructions Evicting Data 0
L2C Translations Evicting Data 253
L2C Data Evicting Data 124483
L2C Instructions Evicting Instructions 0
L2C Translations Evicting Instructions 0
L2C Data Evicting Instructions 0
L2C Instructions Evicting Translations 0
L2C Translations Evicting Translations 0
L2C Data Evicting Translations 257
L2C Dense regions hint from L2: 0
PSCL5 TOTAL     ACCESS:     300829  HIT:     300829  MISS:          0  HIT %:        100  MISS %:          0   MPKI: 0
PSCL5 LOAD TRANSLATION ACCESS:     253055  HIT:     253055  MISS:          0  HIT %:        100  MISS %:          0   MPKI: 0
PSCL5 PREFETCH TRANSLATION ACCESS:      47774  HIT:      47774  MISS:          0  HIT %:        100  MISS %:          0   MPKI: 0
PSCL5 PREFETCH  REQUESTED:          0  ISSUED:          0  USEFUL:          0  USELESS:          0
PSCL5 USEFUL LOAD PREFETCHES:          0 PREFETCH ISSUED TO LOWER LEVEL:          0  ACCURACY: -nan
PSCL5 TIMELY PREFETCHES:          0 LATE PREFETCHES: 0 DROPPED PREFETCHES: 0
PSCL5 PREFETCHES SAME FILL-ORIGIN LEVEL: 0 DIFFERENT FILL-ORIGIN LEVEL: 0

PSCL4 TOTAL     ACCESS:     300829  HIT:     300829  MISS:          0  HIT %:        100  MISS %:          0   MPKI: 0
PSCL4 LOAD TRANSLATION ACCESS:     253055  HIT:     253055  MISS:          0  HIT %:        100  MISS %:          0   MPKI: 0
PSCL4 PREFETCH TRANSLATION ACCESS:      47774  HIT:      47774  MISS:          0  HIT %:        100  MISS %:          0   MPKI: 0
PSCL4 PREFETCH  REQUESTED:          0  ISSUED:          0  USEFUL:          0  USELESS:          0
PSCL4 USEFUL LOAD PREFETCHES:          0 PREFETCH ISSUED TO LOWER LEVEL:          0  ACCURACY: -nan
PSCL4 TIMELY PREFETCHES:          0 LATE PREFETCHES: 0 DROPPED PREFETCHES: 0
PSCL4 PREFETCHES SAME FILL-ORIGIN LEVEL: 0 DIFFERENT FILL-ORIGIN LEVEL: 0

PSCL3 TOTAL     ACCESS:     265078  HIT:     265078  MISS:          0  HIT %:        100  MISS %:          0   MPKI: 0
PSCL3 LOAD TRANSLATION ACCESS:     253055  HIT:     253055  MISS:          0  HIT %:        100  MISS %:          0   MPKI: 0
PSCL3 PREFETCH TRANSLATION ACCESS:      12023  HIT:      12023  MISS:          0  HIT %:        100  MISS %:          0   MPKI: 0
PSCL3 PREFETCH  REQUESTED:          0  ISSUED:          0  USEFUL:          0  USELESS:          0
PSCL3 USEFUL LOAD PREFETCHES:          0 PREFETCH ISSUED TO LOWER LEVEL:          0  ACCURACY: -nan
PSCL3 TIMELY PREFETCHES:          0 LATE PREFETCHES: 0 DROPPED PREFETCHES: 0
PSCL3 PREFETCHES SAME FILL-ORIGIN LEVEL: 0 DIFFERENT FILL-ORIGIN LEVEL: 0

PSCL2 TOTAL     ACCESS:     264880  HIT:      20826  MISS:     244054  HIT %:    7.86243  MISS %:    92.1376   MPKI: 9.76216
PSCL2 LOAD TRANSLATION ACCESS:     263192  HIT:      19138  MISS:     244054  HIT %:     7.2715  MISS %:    92.7285   MPKI: 9.76216
PSCL2 PREFETCH TRANSLATION ACCESS:       1688  HIT:       1688  MISS:          0  HIT %:        100  MISS %:          0   MPKI: 0
PSCL2 PREFETCH  REQUESTED:          0  ISSUED:          0  USEFUL:          0  USELESS:          0
PSCL2 USEFUL LOAD PREFETCHES:          0 PREFETCH ISSUED TO LOWER LEVEL:          0  ACCURACY: -nan
PSCL2 TIMELY PREFETCHES:          0 LATE PREFETCHES: 0 DROPPED PREFETCHES: 0
PSCL2 PREFETCHES SAME FILL-ORIGIN LEVEL: 0 DIFFERENT FILL-ORIGIN LEVEL: 0

LLC TOTAL     ACCESS:     160319  HIT:      35278  MISS:     125041  HIT %:    22.0049  MISS %:    77.9951   MPKI: 5.00164
LLC LOAD      ACCESS:      89402  HIT:          0  MISS:      89402  HIT %:          0  MISS %:        100   MPKI: 3.57608
LLC RFO       ACCESS:      35338  HIT:          0  MISS:      35338  HIT %:          0  MISS %:        100   MPKI: 1.41352
LLC WRITEBACK ACCESS:      35326  HIT:      35278  MISS:         48  HIT %:    99.8641  MISS %:   0.135877   MPKI: 0.00192
LLC LOAD TRANSLATION ACCESS:        144  HIT:          0  MISS:        144  HIT %:          0  MISS %:        100   MPKI: 0.00576
LLC PREFETCH TRANSLATION ACCESS:        109  HIT:          0  MISS:        109  HIT %:          0  MISS %:        100   MPKI: 0.00436
LLC PREFETCH  REQUESTED:          0  ISSUED:          0  USEFUL:          0  USELESS:        105
LLC USEFUL LOAD PREFETCHES:          0 PREFETCH ISSUED TO LOWER LEVEL:          0  ACCURACY: -nan
LLC TIMELY PREFETCHES:          0 LATE PREFETCHES: 0 DROPPED PREFETCHES: 0
LLC PREFETCHES SAME FILL-ORIGIN LEVEL: 0 DIFFERENT FILL-ORIGIN LEVEL: 0
LLC AVERAGE MISS LATENCY: 176.995 cycles
LLC RQ	ACCESS:     124994	FORWARD:          0	MERGED:          0	TO_CACHE:     124994
LLC WQ	ACCESS:      35326	FORWARD:          0	MERGED:          0	TO_CACHE:      35326

LLC Dense regions hint to LLC: 0

RAW hits: 1741392
Loads Generated: 14515378
Loads sent to L1D: 12773983
Stores Generated: 4203877
Stores sent to L1D: 4203877
Major fault: 0 Minor fault: 2808
Allocated PAGES: 2808
CPU 0 STLB arbitrary stride prefetcher final stats

DRAM Statistics
 CHANNEL 0
 RQ ROW_BUFFER_HIT:      32197  ROW_BUFFER_MISS:      92796
 DBUS_CONGESTED:         75
 WQ ROW_BUFFER_HIT:       8688  ROW_BUFFER_MISS:      28693  FULL:          0

 AVG_CONGESTED_CYCLE: 5
 All warmup complete: 2
Channel 0 Bank busy for read cycles: 0
Channel 0 Bank busy for write cycles: 0
Channel 0
Rank 0
0banks busy for read cycles: 21131563
0banks busy for write cycles: 15417
1banks busy for read cycles: 7472279
1banks busy for write cycles: 2392710
2banks busy for read cycles: 1288283
2banks busy for write cycles: 497472
3banks busy for read cycles: 560219
3banks busy for write cycles: 359626
4banks busy for read cycles: 736009
4banks busy for write cycles: 247222
5banks busy for read cycles: 170624
5banks busy for write cycles: 146747
6banks busy for read cycles: 1396
6banks busy for write cycles: 31201
7banks busy for read cycles: 139
7banks busy for write cycles: 34511
8banks busy for read cycles: 0
8banks busy for write cycles: 192078

CPU 0 Branch Prediction Accuracy: 99.1679% MPKI: 0.01024 Average ROB Occupancy at Mispredict: 348.742
Branch types
NOT_BRANCH: 24969238 99.8769%
BRANCH_DIRECT_JUMP: 252 0.001008%
BRANCH_INDIRECT: 0 0%
BRANCH_CONDITIONAL: 30513 0.122052%
BRANCH_DIRECT_CALL: 0 0%
BRANCH_INDIRECT_CALL: 0 0%
BRANCH_RETURN: 0 0%
BRANCH_OTHER: 0 0%

DRAM PAGES: 1048576
Allocated PAGES: 2808
