
*** ChampSim Multicore Out-of-Order Simulator ***

Warmup Instructions: 25000000
Simulation Instructions: 25000000
Number of CPUs: 1
LLC sets: 2048
LLC ways: 16
Off-chip DRAM Size: 4096 MB Channels: 1 Width: 64-bit Data Rate: 6400 MT/s
CPU 0 runs ../../../../../traces/sssp-14.trace.gz
.gz
CPU 0 Bimodal branch predictor
BTB has LRU replacement policy
ITLB has LRU replacement policy
DTLB has LRU replacement policy
STLB has LRU replacement policy
L1I has LRU replacement policy
CPU 0 L1D Next-line prefetcher
L1D has LRU replacement policy
L2C has LRU replacement policy
LLC has LRU replacement policy
Heartbeat CPU 0 instructions: 10000001 cycles: 3084248 heartbeat IPC: 3.24228 cumulative IPC: 3.24228 (Simulation time: 0 hr 0 min 14 sec) 
Heartbeat CPU 0 instructions: 20000003 cycles: 6133293 heartbeat IPC: 3.27972 cumulative IPC: 3.26089 (Simulation time: 0 hr 0 min 29 sec) 

Warmup complete CPU 0 instructions: 25000002 cycles: 7668645 (Simulation time: 0 hr 0 min 37 sec) 

Heartbeat CPU 0 instructions: 30000001 cycles: 24571886 heartbeat IPC: 0.542341 cumulative IPC: 0.295801 (Simulation time: 0 hr 0 min 50 sec) 
Heartbeat CPU 0 instructions: 40000003 cycles: 56289184 heartbeat IPC: 0.315285 cumulative IPC: 0.308512 (Simulation time: 0 hr 1 min 15 sec) 
Heartbeat CPU 0 instructions: 50000000 cycles: 86986598 heartbeat IPC: 0.32576 cumulative IPC: 0.315187 (Simulation time: 0 hr 1 min 41 sec) 
Finished CPU 0 instructions: 25000002 cycles: 79317954 cumulative IPC: 0.315187 (Simulation time: 0 hr 1 min 41 sec) 

ChampSim completed all CPUs

Region of Interest Statistics

CPU 0 cumulative IPC: 0.315187 instructions: 25000002 cycles: 79317954
ITLB TOTAL     ACCESS:    2529925  HIT:    2529925  MISS:          0  HIT %:        100  MISS %:          0   MPKI: 0
ITLB LOAD TRANSLATION ACCESS:    2529925  HIT:    2529925  MISS:          0  HIT %:        100  MISS %:          0   MPKI: 0
ITLB PREFETCH  REQUESTED:          0  ISSUED:          0  USEFUL:          0  USELESS:          0
ITLB USEFUL LOAD PREFETCHES:          0 PREFETCH ISSUED TO LOWER LEVEL:          0  ACCURACY: -nan
ITLB TIMELY PREFETCHES:          0 LATE PREFETCHES: 0 DROPPED PREFETCHES: 0
ITLB PREFETCHES SAME FILL-ORIGIN LEVEL: 0 DIFFERENT FILL-ORIGIN LEVEL: 0
ITLB AVERAGE MISS LATENCY: -nan cycles
ITLB RQ	ACCESS:    2720535	FORWARD:          0	MERGED:     190611	TO_CACHE:    2529924

DTLB TOTAL     ACCESS:    4885941  HIT:    4475342  MISS:     410599  HIT %:    91.5963  MISS %:    8.40368   MPKI: 16.424
DTLB LOAD TRANSLATION ACCESS:    4885941  HIT:    4475342  MISS:     410599  HIT %:    91.5963  MISS %:    8.40368   MPKI: 16.424
DTLB PREFETCH  REQUESTED:          0  ISSUED:          0  USEFUL:          0  USELESS:          0
DTLB USEFUL LOAD PREFETCHES:          0 PREFETCH ISSUED TO LOWER LEVEL:          0  ACCURACY: -nan
DTLB TIMELY PREFETCHES:          0 LATE PREFETCHES: 0 DROPPED PREFETCHES: 0
DTLB PREFETCHES SAME FILL-ORIGIN LEVEL: 0 DIFFERENT FILL-ORIGIN LEVEL: 0
DTLB AVERAGE MISS LATENCY: 13.859 cycles
DTLB RQ	ACCESS:    5484291	FORWARD:          0	MERGED:     576868	TO_CACHE:    4907423

STLB TOTAL     ACCESS:    5296363  HIT:    5212621  MISS:      83742  HIT %:    98.4189  MISS %:    1.58112   MPKI: 3.34968
STLB LOAD TRANSLATION ACCESS:     410599  HIT:     391440  MISS:      19159  HIT %:    95.3339  MISS %:    4.66611   MPKI: 0.76636
STLB PREFETCH TRANSLATION ACCESS:    1428882  HIT:    1364300  MISS:      64582  HIT %:    95.4802  MISS %:    4.51976   MPKI: 2.58328
STLB TRANSLATION FROM L1D PREFETCHER ACCESS:    3456882  HIT:    3456881  MISS:          1  HIT %:        100  MISS %: 2.89278e-05   MPKI: 4e-05
STLB PREFETCH  REQUESTED:    1642396  ISSUED:    1638652  USEFUL:      45991  USELESS:      18294
STLB USEFUL LOAD PREFETCHES:      45991 PREFETCH ISSUED TO LOWER LEVEL:      99826  ACCURACY: 46.0712
STLB TIMELY PREFETCHES:      45991 LATE PREFETCHES: 2847 DROPPED PREFETCHES: 32396
STLB PREFETCHES SAME FILL-ORIGIN LEVEL: 99826 DIFFERENT FILL-ORIGIN LEVEL: 0
STLB AVERAGE MISS LATENCY: 76.3966 cycles
STLB RQ	ACCESS:   16539947	FORWARD:          0	MERGED:   12672465	TO_CACHE:    3867482
STLB PQ	ACCESS:    1638652	FORWARD:          0	MERGED:     163983	TO_CACHE:    1474669

STLB Hit, L1D data hit: 0
STLB Hit, L2C data hit: 0
STLB Hit, LLC data hit: 0
STLB Hit, LLC data miss: 0
STLB STLB hints to L2: 0
L1D TOTAL     ACCESS:   20973734  HIT:   16376862  MISS:    4596872  HIT %:    78.0827  MISS %:    21.9173   MPKI: 183.875
L1D LOAD      ACCESS:    4828109  HIT:    3863788  MISS:     964321  HIT %:    80.0269  MISS %:    19.9731   MPKI: 38.5728
L1D RFO       ACCESS:     590456  HIT:     416816  MISS:     173640  HIT %:    70.5922  MISS %:    29.4078   MPKI: 6.9456
L1D PREFETCH  ACCESS:   15555169  HIT:   12096258  MISS:    3458911  HIT %:    77.7636  MISS %:    22.2364   MPKI: 138.356
AGUS PREFETCH L1 MISS: 0
L1D PREFETCH  REQUESTED:   39659926  ISSUED:   37342091  USEFUL:     263363  USELESS:    3195456
L1D USEFUL LOAD PREFETCHES:     263363 PREFETCH ISSUED TO LOWER LEVEL:    3512528  ACCURACY: 7.49782
L1D TIMELY PREFETCHES:     263363 LATE PREFETCHES: 53610 DROPPED PREFETCHES: 0
L1D PREFETCHES SAME FILL-ORIGIN LEVEL: 3512528 DIFFERENT FILL-ORIGIN LEVEL: 0
L1D AVERAGE MISS LATENCY: 124.816 cycles
L1D RQ	ACCESS:    9065599	FORWARD:          0	MERGED:    4220857	TO_CACHE:    4844730
L1D WQ	ACCESS:     639920	FORWARD:         18	MERGED:        359	TO_CACHE:     639561
L1D PQ	ACCESS:   21212743	FORWARD:          0	MERGED:    5083389	TO_CACHE:   16129348

L1D UNIQUE REGIONS ACCESSED: 0
L1D REGIONS CONFLICTS: 0
L1D Cross Page Prefetch Requests: 0
L1D Same Page Prefetch Requests: 35529724
L1D ROI Sum of L1D PQ occupancy: 274392399
L1D PREFETCHES PUSHED FROM L2C: 0
L1I TOTAL     ACCESS:    2720536  HIT:    2720536  MISS:          0  HIT %:        100  MISS %:          0   MPKI: 0
L1I LOAD      ACCESS:    2720536  HIT:    2720536  MISS:          0  HIT %:        100  MISS %:          0   MPKI: 0
L1I PREFETCH  REQUESTED:          0  ISSUED:          0  USEFUL:          0  USELESS:          0
L1I USEFUL LOAD PREFETCHES:          0 PREFETCH ISSUED TO LOWER LEVEL:          0  ACCURACY: -nan
L1I TIMELY PREFETCHES:          0 LATE PREFETCHES: 0 DROPPED PREFETCHES: 0
L1I PREFETCHES SAME FILL-ORIGIN LEVEL: 0 DIFFERENT FILL-ORIGIN LEVEL: 0
L1I AVERAGE MISS LATENCY: -nan cycles
L1I RQ	ACCESS:    4594175	FORWARD:          0	MERGED:    1873640	TO_CACHE:    2720535

BTB TOTAL     ACCESS:    3484641  HIT:    3484518  MISS:        123  HIT %:    99.9965  MISS %: 0.00352978   MPKI: 0.00492
BTB BRANCH_DIRECT_JUMP	ACCESS:    1031131  HIT:    1031096  MISS:         35
BTB BRANCH_INDIRECT	ACCESS:          0  HIT:          0  MISS:          0
BTB BRANCH_CONDITIONAL	ACCESS:    2451944  HIT:    2451871  MISS:         73
BTB BRANCH_DIRECT_CALL	ACCESS:        783  HIT:        777  MISS:          6
BTB BRANCH_INDIRECT_CALL	ACCESS:          0  HIT:          0  MISS:          0
BTB BRANCH_RETURN	ACCESS:        783  HIT:        774  MISS:          9
BTB BRANCH_OTHER ACCESS:          0  HIT:          0  MISS:          0

L2C TOTAL     ACCESS:    5155615  HIT:    1086128  MISS:    4069487  HIT %:    21.0669  MISS %:    78.9331   MPKI: 162.779
L2C LOAD      ACCESS:     910692  HIT:      94280  MISS:     816412  HIT %:    10.3526  MISS %:    89.6474   MPKI: 32.6565
L2C DATA LOAD MPKI: 32.6565
L2C INSTRUCTION LOAD MPKI: 0
L2C RFO       ACCESS:     173614  HIT:     113885  MISS:      59729  HIT %:    65.5967  MISS %:    34.4033   MPKI: 2.38916
L2C PREFETCH  ACCESS:    3512463  HIT:     352651  MISS:    3159812  HIT %:      10.04  MISS %:      89.96   MPKI: 126.392
AGUS PREFETCH L1 MISS: 0
L2C DATA PREFETCH MPKI: 126.392
L2C INSTRUCTION PREFETCH MPKI: 0
L2C WRITEBACK ACCESS:     441143  HIT:     439487  MISS:       1656  HIT %:    99.6246  MISS %:   0.375388   MPKI: 0.06624
L2C LOAD TRANSLATION ACCESS:      17169  HIT:       8525  MISS:       8644  HIT %:    49.6534  MISS %:    50.3466   MPKI: 0.34576
L2C PREFETCH TRANSLATION ACCESS:     100534  HIT:      77300  MISS:      23234  HIT %:    76.8894  MISS %:    23.1106   MPKI: 0.92936
L2C PREFETCH  REQUESTED:          0  ISSUED:          0  USEFUL:      38672  USELESS:    3142816
L2C USEFUL LOAD PREFETCHES:      38672 PREFETCH ISSUED TO LOWER LEVEL:    3159812  ACCURACY: 1.22387
L2C TIMELY PREFETCHES:      38672 LATE PREFETCHES: 0 DROPPED PREFETCHES: 0
L2C PREFETCHES SAME FILL-ORIGIN LEVEL: 0 DIFFERENT FILL-ORIGIN LEVEL: 0
L2C AVERAGE MISS LATENCY: 127.1 cycles
L2C RQ	ACCESS:    1202046	FORWARD:          0	MERGED:          0	TO_CACHE:    1202009
L2C WQ	ACCESS:     441143	FORWARD:        102	MERGED:          0	TO_CACHE:     441143
L2C PQ	ACCESS:    3512528	FORWARD:          0	MERGED:          0	TO_CACHE:    3512463

L2C Instructions Evicting Data 0
L2C Translations Evicting Data 31845
L2C Data Evicting Data 4004194
L2C Instructions Evicting Instructions 0
L2C Translations Evicting Instructions 0
L2C Data Evicting Instructions 0
L2C Instructions Evicting Translations 0
L2C Translations Evicting Translations 33
L2C Data Evicting Translations 31759
L2C Dense regions hint from L2: 0
PSCL5 TOTAL     ACCESS:     116149  HIT:     116149  MISS:          0  HIT %:        100  MISS %:          0   MPKI: 0
PSCL5 LOAD TRANSLATION ACCESS:      16323  HIT:      16323  MISS:          0  HIT %:        100  MISS %:          0   MPKI: 0
PSCL5 PREFETCH TRANSLATION ACCESS:      99826  HIT:      99826  MISS:          0  HIT %:        100  MISS %:          0   MPKI: 0
PSCL5 PREFETCH  REQUESTED:          0  ISSUED:          0  USEFUL:          0  USELESS:          0
PSCL5 USEFUL LOAD PREFETCHES:          0 PREFETCH ISSUED TO LOWER LEVEL:          0  ACCURACY: -nan
PSCL5 TIMELY PREFETCHES:          0 LATE PREFETCHES: 0 DROPPED PREFETCHES: 0
PSCL5 PREFETCHES SAME FILL-ORIGIN LEVEL: 0 DIFFERENT FILL-ORIGIN LEVEL: 0

PSCL4 TOTAL     ACCESS:     116149  HIT:     116149  MISS:          0  HIT %:        100  MISS %:          0   MPKI: 0
PSCL4 LOAD TRANSLATION ACCESS:      16323  HIT:      16323  MISS:          0  HIT %:        100  MISS %:          0   MPKI: 0
PSCL4 PREFETCH TRANSLATION ACCESS:      99826  HIT:      99826  MISS:          0  HIT %:        100  MISS %:          0   MPKI: 0
PSCL4 PREFETCH  REQUESTED:          0  ISSUED:          0  USEFUL:          0  USELESS:          0
PSCL4 USEFUL LOAD PREFETCHES:          0 PREFETCH ISSUED TO LOWER LEVEL:          0  ACCURACY: -nan
PSCL4 TIMELY PREFETCHES:          0 LATE PREFETCHES: 0 DROPPED PREFETCHES: 0
PSCL4 PREFETCHES SAME FILL-ORIGIN LEVEL: 0 DIFFERENT FILL-ORIGIN LEVEL: 0

PSCL3 TOTAL     ACCESS:     116149  HIT:     116149  MISS:          0  HIT %:        100  MISS %:          0   MPKI: 0
PSCL3 LOAD TRANSLATION ACCESS:      16323  HIT:      16323  MISS:          0  HIT %:        100  MISS %:          0   MPKI: 0
PSCL3 PREFETCH TRANSLATION ACCESS:      99826  HIT:      99826  MISS:          0  HIT %:        100  MISS %:          0   MPKI: 0
PSCL3 PREFETCH  REQUESTED:          0  ISSUED:          0  USEFUL:          0  USELESS:          0
PSCL3 USEFUL LOAD PREFETCHES:          0 PREFETCH ISSUED TO LOWER LEVEL:          0  ACCURACY: -nan
PSCL3 TIMELY PREFETCHES:          0 LATE PREFETCHES: 0 DROPPED PREFETCHES: 0
PSCL3 PREFETCHES SAME FILL-ORIGIN LEVEL: 0 DIFFERENT FILL-ORIGIN LEVEL: 0

PSCL2 TOTAL     ACCESS:     115524  HIT:     114592  MISS:        932  HIT %:    99.1932  MISS %:   0.806759   MPKI: 0.03728
PSCL2 LOAD TRANSLATION ACCESS:      16406  HIT:      15474  MISS:        932  HIT %:    94.3192  MISS %:    5.68085   MPKI: 0.03728
PSCL2 PREFETCH TRANSLATION ACCESS:      99118  HIT:      99118  MISS:          0  HIT %:        100  MISS %:          0   MPKI: 0
PSCL2 PREFETCH  REQUESTED:          0  ISSUED:          0  USEFUL:          0  USELESS:          0
PSCL2 USEFUL LOAD PREFETCHES:          0 PREFETCH ISSUED TO LOWER LEVEL:          0  ACCURACY: -nan
PSCL2 TIMELY PREFETCHES:          0 LATE PREFETCHES: 0 DROPPED PREFETCHES: 0
PSCL2 PREFETCHES SAME FILL-ORIGIN LEVEL: 0 DIFFERENT FILL-ORIGIN LEVEL: 0

LLC TOTAL     ACCESS:    4318681  HIT:    1826042  MISS:    2492639  HIT %:    42.2824  MISS %:    57.7176   MPKI: 99.7056
LLC LOAD      ACCESS:     816412  HIT:     339587  MISS:     476825  HIT %:    41.5951  MISS %:    58.4049   MPKI: 19.073
LLC RFO       ACCESS:      59726  HIT:      29076  MISS:      30650  HIT %:    48.6823  MISS %:    51.3177   MPKI: 1.226
LLC PREFETCH  ACCESS:    3159812  HIT:    1187819  MISS:    1971993  HIT %:    37.5914  MISS %:    62.4086   MPKI: 78.8797
AGUS PREFETCH L1 MISS: 0
LLC WRITEBACK ACCESS:     250853  HIT:     247415  MISS:       3438  HIT %:    98.6295  MISS %:    1.37052   MPKI: 0.13752
LLC LOAD TRANSLATION ACCESS:       8644  HIT:       5032  MISS:       3612  HIT %:    58.2138  MISS %:    41.7862   MPKI: 0.14448
LLC PREFETCH TRANSLATION ACCESS:      23234  HIT:      17113  MISS:       6121  HIT %:     73.655  MISS %:     26.345   MPKI: 0.24484
LLC PREFETCH  REQUESTED:          0  ISSUED:          0  USEFUL:     140329  USELESS:    1831983
LLC USEFUL LOAD PREFETCHES:     140329 PREFETCH ISSUED TO LOWER LEVEL:    1971994  ACCURACY: 7.1161
LLC TIMELY PREFETCHES:     140329 LATE PREFETCHES: 0 DROPPED PREFETCHES: 0
LLC PREFETCHES SAME FILL-ORIGIN LEVEL: 0 DIFFERENT FILL-ORIGIN LEVEL: 0
LLC AVERAGE MISS LATENCY: 161.649 cycles
LLC RQ	ACCESS:     908019	FORWARD:          0	MERGED:          0	TO_CACHE:     908016
LLC WQ	ACCESS:     250853	FORWARD:          3	MERGED:          0	TO_CACHE:     250853
LLC PQ	ACCESS:    3159812	FORWARD:          0	MERGED:          0	TO_CACHE:    3159812

LLC Dense regions hint to LLC: 0

RAW hits: 5024
Loads Generated: 9070623
Loads sent to L1D: 9065599
Stores Generated: 639919
Stores sent to L1D: 639920
Major fault: 0 Minor fault: 7709
Allocated PAGES: 7709
CPU 0 L1D nextline prefetcher final stats
Degree: 5
CPU 0 STLB arbitrary stride prefetcher final stats

DRAM Statistics
 CHANNEL 0
 RQ ROW_BUFFER_HIT:    1227488  ROW_BUFFER_MISS:    1261273
 DBUS_CONGESTED:       1957
 WQ ROW_BUFFER_HIT:      59137  ROW_BUFFER_MISS:     160302  FULL:          0

 AVG_CONGESTED_CYCLE: 5
 All warmup complete: 2
Channel 0 Bank busy for read cycles: 0
Channel 0 Bank busy for write cycles: 0
Channel 0
Rank 0
0banks busy for read cycles: 592796
0banks busy for write cycles: 3081
1banks busy for read cycles: 13817808
1banks busy for write cycles: 725751
2banks busy for read cycles: 7792975
2banks busy for write cycles: 926075
3banks busy for read cycles: 6438324
3banks busy for write cycles: 1127384
4banks busy for read cycles: 6299856
4banks busy for write cycles: 1380923
5banks busy for read cycles: 6937527
5banks busy for write cycles: 1713829
6banks busy for read cycles: 9083796
6banks busy for write cycles: 2099828
7banks busy for read cycles: 6094866
7banks busy for write cycles: 2863117
8banks busy for read cycles: 5607266
8banks busy for write cycles: 5812753

CPU 0 Branch Prediction Accuracy: 94.0604% MPKI: 8.75416 Average ROB Occupancy at Mispredict: 79.4298
Branch types
NOT_BRANCH: 21315003 85.26%
BRANCH_DIRECT_JUMP: 1031131 4.12452%
BRANCH_INDIRECT: 0 0%
BRANCH_CONDITIONAL: 2651938 10.6078%
BRANCH_DIRECT_CALL: 783 0.003132%
BRANCH_INDIRECT_CALL: 0 0%
BRANCH_RETURN: 783 0.003132%
BRANCH_OTHER: 0 0%

DRAM PAGES: 1048576
Allocated PAGES: 7709
