
*** ChampSim Multicore Out-of-Order Simulator ***

Warmup Instructions: 25000000
Simulation Instructions: 25000000
Number of CPUs: 1
LLC sets: 2048
LLC ways: 16
Off-chip DRAM Size: 4096 MB Channels: 1 Width: 64-bit Data Rate: 6400 MT/s
CPU 0 runs ../../../../../traces/sssp-14.trace.gz
.gz
CPU 0 Bimodal branch predictor
BTB has LRU replacement policy
ITLB has LRU replacement policy
DTLB has LRU replacement policy
STLB has LRU replacement policy
L1I has LRU replacement policy
CPU 0 L1D Next-line prefetcher
L1D has LRU replacement policy
L2C has LRU replacement policy
LLC has LRU replacement policy
Heartbeat CPU 0 instructions: 10000001 cycles: 3083425 heartbeat IPC: 3.24315 cumulative IPC: 3.24315 (Simulation time: 0 hr 0 min 14 sec) 
Heartbeat CPU 0 instructions: 20000003 cycles: 6131606 heartbeat IPC: 3.28065 cumulative IPC: 3.26179 (Simulation time: 0 hr 0 min 29 sec) 

Warmup complete CPU 0 instructions: 25000002 cycles: 7666946 (Simulation time: 0 hr 0 min 36 sec) 

Heartbeat CPU 0 instructions: 30000001 cycles: 24594217 heartbeat IPC: 0.541635 cumulative IPC: 0.295381 (Simulation time: 0 hr 0 min 50 sec) 
Heartbeat CPU 0 instructions: 40000003 cycles: 56390722 heartbeat IPC: 0.3145 cumulative IPC: 0.307858 (Simulation time: 0 hr 1 min 15 sec) 
Heartbeat CPU 0 instructions: 50000000 cycles: 87161559 heartbeat IPC: 0.324983 cumulative IPC: 0.314487 (Simulation time: 0 hr 1 min 42 sec) 
Finished CPU 0 instructions: 25000002 cycles: 79494614 cumulative IPC: 0.314487 (Simulation time: 0 hr 1 min 42 sec) 

ChampSim completed all CPUs

Region of Interest Statistics

CPU 0 cumulative IPC: 0.314487 instructions: 25000002 cycles: 79494614
ITLB TOTAL     ACCESS:    2529998  HIT:    2529998  MISS:          0  HIT %:        100  MISS %:          0   MPKI: 0
ITLB LOAD TRANSLATION ACCESS:    2529998  HIT:    2529998  MISS:          0  HIT %:        100  MISS %:          0   MPKI: 0
ITLB PREFETCH  REQUESTED:          0  ISSUED:          0  USEFUL:          0  USELESS:          0
ITLB USEFUL LOAD PREFETCHES:          0 PREFETCH ISSUED TO LOWER LEVEL:          0  ACCURACY: -nan
ITLB TIMELY PREFETCHES:          0 LATE PREFETCHES: 0 DROPPED PREFETCHES: 0
ITLB PREFETCHES SAME FILL-ORIGIN LEVEL: 0 DIFFERENT FILL-ORIGIN LEVEL: 0
ITLB AVERAGE MISS LATENCY: -nan cycles
ITLB RQ	ACCESS:    2720599	FORWARD:          0	MERGED:     190602	TO_CACHE:    2529997

DTLB TOTAL     ACCESS:    4883753  HIT:    4473153  MISS:     410600  HIT %:    91.5925  MISS %:    8.40747   MPKI: 16.424
DTLB LOAD TRANSLATION ACCESS:    4883753  HIT:    4473153  MISS:     410600  HIT %:    91.5925  MISS %:    8.40747   MPKI: 16.424
DTLB PREFETCH  REQUESTED:          0  ISSUED:          0  USEFUL:          0  USELESS:          0
DTLB USEFUL LOAD PREFETCHES:          0 PREFETCH ISSUED TO LOWER LEVEL:          0  ACCURACY: -nan
DTLB TIMELY PREFETCHES:          0 LATE PREFETCHES: 0 DROPPED PREFETCHES: 0
DTLB PREFETCHES SAME FILL-ORIGIN LEVEL: 0 DIFFERENT FILL-ORIGIN LEVEL: 0
DTLB AVERAGE MISS LATENCY: 14.782 cycles
DTLB RQ	ACCESS:    5484641	FORWARD:          0	MERGED:     576903	TO_CACHE:    4907738

STLB TOTAL     ACCESS:    5230766  HIT:    5149542  MISS:      81224  HIT %:    98.4472  MISS %:    1.55281   MPKI: 3.24896
STLB LOAD TRANSLATION ACCESS:     410600  HIT:     383439  MISS:      27161  HIT %:     93.385  MISS %:    6.61495   MPKI: 1.08644
STLB PREFETCH TRANSLATION ACCESS:    1363534  HIT:    1309472  MISS:      54062  HIT %:    96.0352  MISS %:    3.96484   MPKI: 2.16248
STLB TRANSLATION FROM L1D PREFETCHER ACCESS:    3456632  HIT:    3456631  MISS:          1  HIT %:        100  MISS %: 2.89299e-05   MPKI: 4e-05
STLB PREFETCH  REQUESTED:    1557786  ISSUED:    1554254  USEFUL:      35786  USELESS:      17975
STLB USEFUL LOAD PREFETCHES:      35786 PREFETCH ISSUED TO LOWER LEVEL:     101278  ACCURACY: 35.3344
STLB TIMELY PREFETCHES:      35786 LATE PREFETCHES: 3899 DROPPED PREFETCHES: 43316
STLB PREFETCHES SAME FILL-ORIGIN LEVEL: 101278 DIFFERENT FILL-ORIGIN LEVEL: 0
STLB AVERAGE MISS LATENCY: 74.5632 cycles
STLB RQ	ACCESS:   16551982	FORWARD:          0	MERGED:   12684749	TO_CACHE:    3867233
STLB PQ	ACCESS:    1554254	FORWARD:          0	MERGED:     127816	TO_CACHE:    1426438

STLB Hit, L1D data hit: 0
STLB Hit, L2C data hit: 0
STLB Hit, LLC data hit: 0
STLB Hit, LLC data miss: 0
STLB STLB hints to L2: 0
L1D TOTAL     ACCESS:   20986894  HIT:   16380336  MISS:    4606558  HIT %:    78.0503  MISS %:    21.9497   MPKI: 184.262
L1D LOAD      ACCESS:    4828467  HIT:    3864174  MISS:     964293  HIT %:     80.029  MISS %:     19.971   MPKI: 38.5717
L1D RFO       ACCESS:     590428  HIT:     416744  MISS:     173684  HIT %:    70.5834  MISS %:    29.4166   MPKI: 6.94736
L1D PREFETCH  ACCESS:   15567999  HIT:   12099418  MISS:    3468581  HIT %:    77.7198  MISS %:    22.2802   MPKI: 138.743
AGUS PREFETCH L1 MISS: 0
L1D PREFETCH  REQUESTED:   39673734  ISSUED:   37367195  USEFUL:     263513  USELESS:    3204975
L1D USEFUL LOAD PREFETCHES:     263513 PREFETCH ISSUED TO LOWER LEVEL:    3522062  ACCURACY: 7.48178
L1D TIMELY PREFETCHES:     263513 LATE PREFETCHES: 53475 DROPPED PREFETCHES: 0
L1D PREFETCHES SAME FILL-ORIGIN LEVEL: 3522062 DIFFERENT FILL-ORIGIN LEVEL: 0
L1D AVERAGE MISS LATENCY: 124.705 cycles
L1D RQ	ACCESS:    9065598	FORWARD:          0	MERGED:    4220507	TO_CACHE:    4845080
L1D WQ	ACCESS:     639920	FORWARD:         18	MERGED:        359	TO_CACHE:     639561
L1D PQ	ACCESS:   21225813	FORWARD:          0	MERGED:    5084424	TO_CACHE:   16141382

L1D UNIQUE REGIONS ACCESSED: 0
L1D REGIONS CONFLICTS: 0
L1D Cross Page Prefetch Requests: 0
L1D Same Page Prefetch Requests: 35544676
L1D ROI Sum of L1D PQ occupancy: 274681717
L1D PREFETCHES PUSHED FROM L2C: 0
L1I TOTAL     ACCESS:    2720600  HIT:    2720600  MISS:          0  HIT %:        100  MISS %:          0   MPKI: 0
L1I LOAD      ACCESS:    2720600  HIT:    2720600  MISS:          0  HIT %:        100  MISS %:          0   MPKI: 0
L1I PREFETCH  REQUESTED:          0  ISSUED:          0  USEFUL:          0  USELESS:          0
L1I USEFUL LOAD PREFETCHES:          0 PREFETCH ISSUED TO LOWER LEVEL:          0  ACCURACY: -nan
L1I TIMELY PREFETCHES:          0 LATE PREFETCHES: 0 DROPPED PREFETCHES: 0
L1I PREFETCHES SAME FILL-ORIGIN LEVEL: 0 DIFFERENT FILL-ORIGIN LEVEL: 0
L1I AVERAGE MISS LATENCY: -nan cycles
L1I RQ	ACCESS:    4594188	FORWARD:          0	MERGED:    1873589	TO_CACHE:    2720599

BTB TOTAL     ACCESS:    3484641  HIT:    3484518  MISS:        123  HIT %:    99.9965  MISS %: 0.00352978   MPKI: 0.00492
BTB BRANCH_DIRECT_JUMP	ACCESS:    1031131  HIT:    1031096  MISS:         35
BTB BRANCH_INDIRECT	ACCESS:          0  HIT:          0  MISS:          0
BTB BRANCH_CONDITIONAL	ACCESS:    2451944  HIT:    2451871  MISS:         73
BTB BRANCH_DIRECT_CALL	ACCESS:        783  HIT:        777  MISS:          6
BTB BRANCH_INDIRECT_CALL	ACCESS:          0  HIT:          0  MISS:          0
BTB BRANCH_RETURN	ACCESS:        783  HIT:        774  MISS:          9
BTB BRANCH_OTHER ACCESS:          0  HIT:          0  MISS:          0

L2C TOTAL     ACCESS:    5173783  HIT:    1094381  MISS:    4079402  HIT %:    21.1524  MISS %:    78.8476   MPKI: 163.176
L2C LOAD      ACCESS:     910799  HIT:      94152  MISS:     816647  HIT %:    10.3373  MISS %:    89.6627   MPKI: 32.6659
L2C DATA LOAD MPKI: 32.6659
L2C INSTRUCTION LOAD MPKI: 0
L2C RFO       ACCESS:     173659  HIT:     113867  MISS:      59792  HIT %:    65.5693  MISS %:    34.4307   MPKI: 2.39168
L2C PREFETCH  ACCESS:    3521996  HIT:     352963  MISS:    3169033  HIT %:    10.0217  MISS %:    89.9783   MPKI: 126.761
AGUS PREFETCH L1 MISS: 0
L2C DATA PREFETCH MPKI: 126.761
L2C INSTRUCTION PREFETCH MPKI: 0
L2C WRITEBACK ACCESS:     441305  HIT:     439667  MISS:       1638  HIT %:    99.6288  MISS %:   0.371172   MPKI: 0.06552
L2C LOAD TRANSLATION ACCESS:      24108  HIT:      12927  MISS:      11181  HIT %:    53.6212  MISS %:    46.3788   MPKI: 0.44724
L2C PREFETCH TRANSLATION ACCESS:     101916  HIT:      80805  MISS:      21111  HIT %:    79.2859  MISS %:    20.7141   MPKI: 0.84444
L2C PREFETCH  REQUESTED:          0  ISSUED:          0  USEFUL:      36439  USELESS:    3152149
L2C USEFUL LOAD PREFETCHES:      36439 PREFETCH ISSUED TO LOWER LEVEL:    3169033  ACCURACY: 1.14985
L2C TIMELY PREFETCHES:      36439 LATE PREFETCHES: 0 DROPPED PREFETCHES: 0
L2C PREFETCHES SAME FILL-ORIGIN LEVEL: 0 DIFFERENT FILL-ORIGIN LEVEL: 0
L2C AVERAGE MISS LATENCY: 126.948 cycles
L2C RQ	ACCESS:    1210519	FORWARD:          0	MERGED:          0	TO_CACHE:    1210482
L2C WQ	ACCESS:     441305	FORWARD:        103	MERGED:          0	TO_CACHE:     441305
L2C PQ	ACCESS:    3522062	FORWARD:          0	MERGED:          0	TO_CACHE:    3521996

L2C Instructions Evicting Data 0
L2C Translations Evicting Data 32257
L2C Data Evicting Data 4013310
L2C Instructions Evicting Instructions 0
L2C Translations Evicting Instructions 0
L2C Data Evicting Instructions 0
L2C Instructions Evicting Translations 0
L2C Translations Evicting Translations 35
L2C Data Evicting Translations 32162
L2C Dense regions hint from L2: 0
PSCL5 TOTAL     ACCESS:     111352  HIT:     111352  MISS:          0  HIT %:        100  MISS %:          0   MPKI: 0
PSCL5 LOAD TRANSLATION ACCESS:      23262  HIT:      23262  MISS:          0  HIT %:        100  MISS %:          0   MPKI: 0
PSCL5 PREFETCH TRANSLATION ACCESS:      88090  HIT:      88090  MISS:          0  HIT %:        100  MISS %:          0   MPKI: 0
PSCL5 PREFETCH  REQUESTED:          0  ISSUED:          0  USEFUL:          0  USELESS:          0
PSCL5 USEFUL LOAD PREFETCHES:          0 PREFETCH ISSUED TO LOWER LEVEL:          0  ACCURACY: -nan
PSCL5 TIMELY PREFETCHES:          0 LATE PREFETCHES: 0 DROPPED PREFETCHES: 0
PSCL5 PREFETCHES SAME FILL-ORIGIN LEVEL: 0 DIFFERENT FILL-ORIGIN LEVEL: 0

PSCL4 TOTAL     ACCESS:     111352  HIT:     111352  MISS:          0  HIT %:        100  MISS %:          0   MPKI: 0
PSCL4 LOAD TRANSLATION ACCESS:      23262  HIT:      23262  MISS:          0  HIT %:        100  MISS %:          0   MPKI: 0
PSCL4 PREFETCH TRANSLATION ACCESS:      88090  HIT:      88090  MISS:          0  HIT %:        100  MISS %:          0   MPKI: 0
PSCL4 PREFETCH  REQUESTED:          0  ISSUED:          0  USEFUL:          0  USELESS:          0
PSCL4 USEFUL LOAD PREFETCHES:          0 PREFETCH ISSUED TO LOWER LEVEL:          0  ACCURACY: -nan
PSCL4 TIMELY PREFETCHES:          0 LATE PREFETCHES: 0 DROPPED PREFETCHES: 0
PSCL4 PREFETCHES SAME FILL-ORIGIN LEVEL: 0 DIFFERENT FILL-ORIGIN LEVEL: 0

PSCL3 TOTAL     ACCESS:     111352  HIT:     111352  MISS:          0  HIT %:        100  MISS %:          0   MPKI: 0
PSCL3 LOAD TRANSLATION ACCESS:      23262  HIT:      23262  MISS:          0  HIT %:        100  MISS %:          0   MPKI: 0
PSCL3 PREFETCH TRANSLATION ACCESS:      88090  HIT:      88090  MISS:          0  HIT %:        100  MISS %:          0   MPKI: 0
PSCL3 PREFETCH  REQUESTED:          0  ISSUED:          0  USEFUL:          0  USELESS:          0
PSCL3 USEFUL LOAD PREFETCHES:          0 PREFETCH ISSUED TO LOWER LEVEL:          0  ACCURACY: -nan
PSCL3 TIMELY PREFETCHES:          0 LATE PREFETCHES: 0 DROPPED PREFETCHES: 0
PSCL3 PREFETCHES SAME FILL-ORIGIN LEVEL: 0 DIFFERENT FILL-ORIGIN LEVEL: 0

PSCL2 TOTAL     ACCESS:     110713  HIT:     109776  MISS:        937  HIT %:    99.1537  MISS %:   0.846332   MPKI: 0.03748
PSCL2 LOAD TRANSLATION ACCESS:      23350  HIT:      22413  MISS:        937  HIT %:    95.9872  MISS %:    4.01285   MPKI: 0.03748
PSCL2 PREFETCH TRANSLATION ACCESS:      87363  HIT:      87363  MISS:          0  HIT %:        100  MISS %:          0   MPKI: 0
PSCL2 PREFETCH  REQUESTED:          0  ISSUED:          0  USEFUL:          0  USELESS:          0
PSCL2 USEFUL LOAD PREFETCHES:          0 PREFETCH ISSUED TO LOWER LEVEL:          0  ACCURACY: -nan
PSCL2 TIMELY PREFETCHES:          0 LATE PREFETCHES: 0 DROPPED PREFETCHES: 0
PSCL2 PREFETCHES SAME FILL-ORIGIN LEVEL: 0 DIFFERENT FILL-ORIGIN LEVEL: 0

LLC TOTAL     ACCESS:    4328659  HIT:    1829929  MISS:    2498730  HIT %:    42.2747  MISS %:    57.7253   MPKI: 99.9492
LLC LOAD      ACCESS:     816647  HIT:     339489  MISS:     477158  HIT %:    41.5711  MISS %:    58.4289   MPKI: 19.0863
LLC RFO       ACCESS:      59790  HIT:      29142  MISS:      30648  HIT %:    48.7406  MISS %:    51.2594   MPKI: 1.22592
LLC PREFETCH  ACCESS:    3169032  HIT:    1191600  MISS:    1977432  HIT %:    37.6014  MISS %:    62.3986   MPKI: 79.0973
AGUS PREFETCH L1 MISS: 0
LLC WRITEBACK ACCESS:     250898  HIT:     247453  MISS:       3445  HIT %:    98.6269  MISS %:    1.37307   MPKI: 0.1378
LLC LOAD TRANSLATION ACCESS:      11181  HIT:       7035  MISS:       4146  HIT %:    62.9192  MISS %:    37.0808   MPKI: 0.16584
LLC PREFETCH TRANSLATION ACCESS:      21111  HIT:      15210  MISS:       5901  HIT %:    72.0477  MISS %:    27.9523   MPKI: 0.23604
LLC PREFETCH  REQUESTED:          0  ISSUED:          0  USEFUL:     140241  USELESS:    1837214
LLC USEFUL LOAD PREFETCHES:     140241 PREFETCH ISSUED TO LOWER LEVEL:    1977433  ACCURACY: 7.09207
LLC TIMELY PREFETCHES:     140241 LATE PREFETCHES: 0 DROPPED PREFETCHES: 0
LLC PREFETCHES SAME FILL-ORIGIN LEVEL: 0 DIFFERENT FILL-ORIGIN LEVEL: 0
LLC AVERAGE MISS LATENCY: 161.396 cycles
LLC RQ	ACCESS:     908731	FORWARD:          0	MERGED:          0	TO_CACHE:     908729
LLC WQ	ACCESS:     250898	FORWARD:          3	MERGED:          0	TO_CACHE:     250898
LLC PQ	ACCESS:    3169033	FORWARD:          0	MERGED:          0	TO_CACHE:    3169032

LLC Dense regions hint to LLC: 0

RAW hits: 5025
Loads Generated: 9070623
Loads sent to L1D: 9065598
Stores Generated: 639919
Stores sent to L1D: 639920
Major fault: 0 Minor fault: 7709
Allocated PAGES: 7709
CPU 0 L1D nextline prefetcher final stats
Degree: 5
CPU 0 STLB arbitrary stride prefetcher final stats

DRAM Statistics
 CHANNEL 0
 RQ ROW_BUFFER_HIT:    1231406  ROW_BUFFER_MISS:    1263487
 DBUS_CONGESTED:       1932
 WQ ROW_BUFFER_HIT:      59213  ROW_BUFFER_MISS:     160245  FULL:          0

 AVG_CONGESTED_CYCLE: 4
 All warmup complete: 2
Channel 0 Bank busy for read cycles: 0
Channel 0 Bank busy for write cycles: 0
Channel 0
Rank 0
0banks busy for read cycles: 594655
0banks busy for write cycles: 3115
1banks busy for read cycles: 13841788
1banks busy for write cycles: 741590
2banks busy for read cycles: 7827776
2banks busy for write cycles: 928687
3banks busy for read cycles: 6452094
3banks busy for write cycles: 1138743
4banks busy for read cycles: 6302525
4banks busy for write cycles: 1398613
5banks busy for read cycles: 6938803
5banks busy for write cycles: 1698358
6banks busy for read cycles: 9112148
6banks busy for write cycles: 2105610
7banks busy for read cycles: 6114780
7banks busy for write cycles: 2890993
8banks busy for read cycles: 5615498
8banks busy for write cycles: 5788839

CPU 0 Branch Prediction Accuracy: 94.0604% MPKI: 8.75416 Average ROB Occupancy at Mispredict: 79.4307
Branch types
NOT_BRANCH: 21315003 85.26%
BRANCH_DIRECT_JUMP: 1031131 4.12452%
BRANCH_INDIRECT: 0 0%
BRANCH_CONDITIONAL: 2651938 10.6078%
BRANCH_DIRECT_CALL: 783 0.003132%
BRANCH_INDIRECT_CALL: 0 0%
BRANCH_RETURN: 783 0.003132%
BRANCH_OTHER: 0 0%

DRAM PAGES: 1048576
Allocated PAGES: 7709
