
*** ChampSim Multicore Out-of-Order Simulator ***

Warmup Instructions: 25000000
Simulation Instructions: 25000000
Number of CPUs: 1
LLC sets: 2048
LLC ways: 16
Off-chip DRAM Size: 4096 MB Channels: 1 Width: 64-bit Data Rate: 6400 MT/s
CPU 0 runs ../../../../../traces/sssp-14.trace.gz
.gz
CPU 0 Bimodal branch predictor
BTB has LRU replacement policy
ITLB has LRU replacement policy
DTLB has LRU replacement policy
STLB has LRU replacement policy
L1I has LRU replacement policy
CPU 0 L1D Next-line prefetcher
L1D has LRU replacement policy
L2C has LRU replacement policy
LLC has LRU replacement policy
Heartbeat CPU 0 instructions: 10000001 cycles: 3082478 heartbeat IPC: 3.24414 cumulative IPC: 3.24414 (Simulation time: 0 hr 0 min 13 sec) 
Heartbeat CPU 0 instructions: 20000003 cycles: 6130462 heartbeat IPC: 3.28086 cumulative IPC: 3.2624 (Simulation time: 0 hr 0 min 29 sec) 

Warmup complete CPU 0 instructions: 25000002 cycles: 7665850 (Simulation time: 0 hr 0 min 36 sec) 

Heartbeat CPU 0 instructions: 30000001 cycles: 24635720 heartbeat IPC: 0.540387 cumulative IPC: 0.29464 (Simulation time: 0 hr 0 min 49 sec) 
Heartbeat CPU 0 instructions: 40000003 cycles: 56483831 heartbeat IPC: 0.31399 cumulative IPC: 0.307264 (Simulation time: 0 hr 1 min 15 sec) 
Heartbeat CPU 0 instructions: 50000000 cycles: 87271296 heartbeat IPC: 0.324807 cumulative IPC: 0.314049 (Simulation time: 0 hr 1 min 41 sec) 
Finished CPU 0 instructions: 25000002 cycles: 79605447 cumulative IPC: 0.314049 (Simulation time: 0 hr 1 min 41 sec) 

ChampSim completed all CPUs

Region of Interest Statistics

CPU 0 cumulative IPC: 0.314049 instructions: 25000002 cycles: 79605447
ITLB TOTAL     ACCESS:    2529883  HIT:    2529883  MISS:          0  HIT %:        100  MISS %:          0   MPKI: 0
ITLB LOAD TRANSLATION ACCESS:    2529883  HIT:    2529883  MISS:          0  HIT %:        100  MISS %:          0   MPKI: 0
ITLB PREFETCH  REQUESTED:          0  ISSUED:          0  USEFUL:          0  USELESS:          0
ITLB USEFUL LOAD PREFETCHES:          0 PREFETCH ISSUED TO LOWER LEVEL:          0  ACCURACY: -nan
ITLB TIMELY PREFETCHES:          0 LATE PREFETCHES: 0 DROPPED PREFETCHES: 0
ITLB PREFETCHES SAME FILL-ORIGIN LEVEL: 0 DIFFERENT FILL-ORIGIN LEVEL: 0
ITLB AVERAGE MISS LATENCY: -nan cycles
ITLB RQ	ACCESS:    2720495	FORWARD:          0	MERGED:     190613	TO_CACHE:    2529882

DTLB TOTAL     ACCESS:    4884431  HIT:    4473824  MISS:     410607  HIT %:    91.5936  MISS %:    8.40644   MPKI: 16.4243
DTLB LOAD TRANSLATION ACCESS:    4884431  HIT:    4473824  MISS:     410607  HIT %:    91.5936  MISS %:    8.40644   MPKI: 16.4243
DTLB PREFETCH  REQUESTED:          0  ISSUED:          0  USEFUL:          0  USELESS:          0
DTLB USEFUL LOAD PREFETCHES:          0 PREFETCH ISSUED TO LOWER LEVEL:          0  ACCURACY: -nan
DTLB TIMELY PREFETCHES:          0 LATE PREFETCHES: 0 DROPPED PREFETCHES: 0
DTLB PREFETCHES SAME FILL-ORIGIN LEVEL: 0 DIFFERENT FILL-ORIGIN LEVEL: 0
DTLB AVERAGE MISS LATENCY: 13.5754 cycles
DTLB RQ	ACCESS:    5483433	FORWARD:          0	MERGED:     576870	TO_CACHE:    4906563

STLB TOTAL     ACCESS:    4384104  HIT:    4352948  MISS:      31156  HIT %:    99.2893  MISS %:   0.710658   MPKI: 1.24624
STLB LOAD TRANSLATION ACCESS:     410607  HIT:     398013  MISS:      12594  HIT %:    96.9328  MISS %:    3.06717   MPKI: 0.50376
STLB PREFETCH TRANSLATION ACCESS:     518233  HIT:     499671  MISS:      18562  HIT %:    96.4182  MISS %:    3.58179   MPKI: 0.74248
STLB TRANSLATION FROM L1D PREFETCHER ACCESS:    3455264  HIT:    3455264  MISS:          0  HIT %:        100  MISS %:          0   MPKI: 0
STLB PREFETCH  REQUESTED:     821214  ISSUED:     821152  USEFUL:       7028  USELESS:      11380
STLB USEFUL LOAD PREFETCHES:       7028 PREFETCH ISSUED TO LOWER LEVEL:     199709  ACCURACY: 3.51912
STLB TIMELY PREFETCHES:       7028 LATE PREFETCHES: 1078 DROPPED PREFETCHES: 180069
STLB PREFETCHES SAME FILL-ORIGIN LEVEL: 199709 DIFFERENT FILL-ORIGIN LEVEL: 0
STLB AVERAGE MISS LATENCY: 121.466 cycles
STLB RQ	ACCESS:   16533664	FORWARD:          0	MERGED:   12667793	TO_CACHE:    3865871
STLB PQ	ACCESS:     821152	FORWARD:          0	MERGED:     119496	TO_CACHE:     701656

STLB Hit, L1D data hit: 0
STLB Hit, L2C data hit: 0
STLB Hit, LLC data hit: 0
STLB Hit, LLC data miss: 0
STLB STLB hints to L2: 0
L1D TOTAL     ACCESS:   20967669  HIT:   16380321  MISS:    4587348  HIT %:    78.1218  MISS %:    21.8782   MPKI: 183.494
L1D LOAD      ACCESS:    4827492  HIT:    3863315  MISS:     964177  HIT %:    80.0274  MISS %:    19.9726   MPKI: 38.5671
L1D RFO       ACCESS:     590436  HIT:     416848  MISS:     173588  HIT %:       70.6  MISS %:       29.4   MPKI: 6.94352
L1D PREFETCH  ACCESS:   15549741  HIT:   12100158  MISS:    3449583  HIT %:    77.8158  MISS %:    22.1842   MPKI: 137.983
AGUS PREFETCH L1 MISS: 0
L1D PREFETCH  REQUESTED:   39649383  ISSUED:   37331193  USEFUL:     263362  USELESS:    3186126
L1D USEFUL LOAD PREFETCHES:     263362 PREFETCH ISSUED TO LOWER LEVEL:    3503029  ACCURACY: 7.51812
L1D TIMELY PREFETCHES:     263362 LATE PREFETCHES: 53442 DROPPED PREFETCHES: 0
L1D PREFETCHES SAME FILL-ORIGIN LEVEL: 3503029 DIFFERENT FILL-ORIGIN LEVEL: 0
L1D AVERAGE MISS LATENCY: 125.261 cycles
L1D RQ	ACCESS:    9065603	FORWARD:          0	MERGED:    4221718	TO_CACHE:    4843872
L1D WQ	ACCESS:     639920	FORWARD:         19	MERGED:        359	TO_CACHE:     639561
L1D PQ	ACCESS:   21208136	FORWARD:          0	MERGED:    5085073	TO_CACHE:   16123057

L1D UNIQUE REGIONS ACCESSED: 0
L1D REGIONS CONFLICTS: 0
L1D Cross Page Prefetch Requests: 0
L1D Same Page Prefetch Requests: 35534491
L1D ROI Sum of L1D PQ occupancy: 273747141
L1D PREFETCHES PUSHED FROM L2C: 0
L1I TOTAL     ACCESS:    2720496  HIT:    2720496  MISS:          0  HIT %:        100  MISS %:          0   MPKI: 0
L1I LOAD      ACCESS:    2720496  HIT:    2720496  MISS:          0  HIT %:        100  MISS %:          0   MPKI: 0
L1I PREFETCH  REQUESTED:          0  ISSUED:          0  USEFUL:          0  USELESS:          0
L1I USEFUL LOAD PREFETCHES:          0 PREFETCH ISSUED TO LOWER LEVEL:          0  ACCURACY: -nan
L1I TIMELY PREFETCHES:          0 LATE PREFETCHES: 0 DROPPED PREFETCHES: 0
L1I PREFETCHES SAME FILL-ORIGIN LEVEL: 0 DIFFERENT FILL-ORIGIN LEVEL: 0
L1I AVERAGE MISS LATENCY: -nan cycles
L1I RQ	ACCESS:    4594153	FORWARD:          0	MERGED:    1873658	TO_CACHE:    2720495

BTB TOTAL     ACCESS:    3484641  HIT:    3484518  MISS:        123  HIT %:    99.9965  MISS %: 0.00352978   MPKI: 0.00492
BTB BRANCH_DIRECT_JUMP	ACCESS:    1031131  HIT:    1031096  MISS:         35
BTB BRANCH_INDIRECT	ACCESS:          0  HIT:          0  MISS:          0
BTB BRANCH_CONDITIONAL	ACCESS:    2451944  HIT:    2451871  MISS:         73
BTB BRANCH_DIRECT_CALL	ACCESS:        783  HIT:        777  MISS:          6
BTB BRANCH_INDIRECT_CALL	ACCESS:          0  HIT:          0  MISS:          0
BTB BRANCH_RETURN	ACCESS:        783  HIT:        774  MISS:          9
BTB BRANCH_OTHER ACCESS:          0  HIT:          0  MISS:          0

L2C TOTAL     ACCESS:    5242850  HIT:    1177009  MISS:    4065841  HIT %:    22.4498  MISS %:    77.5502   MPKI: 162.634
L2C LOAD      ACCESS:     910713  HIT:      94340  MISS:     816373  HIT %:    10.3589  MISS %:    89.6411   MPKI: 32.6549
L2C DATA LOAD MPKI: 32.6549
L2C INSTRUCTION LOAD MPKI: 0
L2C RFO       ACCESS:     173567  HIT:     113827  MISS:      59740  HIT %:     65.581  MISS %:     34.419   MPKI: 2.3896
L2C PREFETCH  ACCESS:    3502957  HIT:     351475  MISS:    3151482  HIT %:    10.0337  MISS %:    89.9663   MPKI: 126.059
AGUS PREFETCH L1 MISS: 0
L2C DATA PREFETCH MPKI: 126.059
L2C INSTRUCTION PREFETCH MPKI: 0
L2C WRITEBACK ACCESS:     440966  HIT:     439302  MISS:       1664  HIT %:    99.6226  MISS %:   0.377353   MPKI: 0.06656
L2C LOAD TRANSLATION ACCESS:      12364  HIT:       5238  MISS:       7126  HIT %:    42.3649  MISS %:    57.6351   MPKI: 0.28504
L2C PREFETCH TRANSLATION ACCESS:     202283  HIT:     172827  MISS:      29456  HIT %:    85.4382  MISS %:    14.5618   MPKI: 1.17824
L2C PREFETCH  REQUESTED:          0  ISSUED:          0  USEFUL:      34981  USELESS:    3144353
L2C USEFUL LOAD PREFETCHES:      34981 PREFETCH ISSUED TO LOWER LEVEL:    3151482  ACCURACY: 1.10999
L2C TIMELY PREFETCHES:      34981 LATE PREFETCHES: 0 DROPPED PREFETCHES: 0
L2C PREFETCHES SAME FILL-ORIGIN LEVEL: 0 DIFFERENT FILL-ORIGIN LEVEL: 0
L2C AVERAGE MISS LATENCY: 127.732 cycles
L2C RQ	ACCESS:    1298965	FORWARD:          0	MERGED:          0	TO_CACHE:    1298927
L2C WQ	ACCESS:     440966	FORWARD:        110	MERGED:          0	TO_CACHE:     440966
L2C PQ	ACCESS:    3503029	FORWARD:          0	MERGED:          0	TO_CACHE:    3502957

L2C Instructions Evicting Data 0
L2C Translations Evicting Data 36481
L2C Data Evicting Data 3991115
L2C Instructions Evicting Instructions 0
L2C Translations Evicting Instructions 0
L2C Data Evicting Instructions 0
L2C Instructions Evicting Translations 0
L2C Translations Evicting Translations 101
L2C Data Evicting Translations 36480
L2C Dense regions hint from L2: 0
PSCL5 TOTAL     ACCESS:     207521  HIT:     207521  MISS:          0  HIT %:        100  MISS %:          0   MPKI: 0
PSCL5 LOAD TRANSLATION ACCESS:      11516  HIT:      11516  MISS:          0  HIT %:        100  MISS %:          0   MPKI: 0
PSCL5 PREFETCH TRANSLATION ACCESS:     196005  HIT:     196005  MISS:          0  HIT %:        100  MISS %:          0   MPKI: 0
PSCL5 PREFETCH  REQUESTED:          0  ISSUED:          0  USEFUL:          0  USELESS:          0
PSCL5 USEFUL LOAD PREFETCHES:          0 PREFETCH ISSUED TO LOWER LEVEL:          0  ACCURACY: -nan
PSCL5 TIMELY PREFETCHES:          0 LATE PREFETCHES: 0 DROPPED PREFETCHES: 0
PSCL5 PREFETCHES SAME FILL-ORIGIN LEVEL: 0 DIFFERENT FILL-ORIGIN LEVEL: 0

PSCL4 TOTAL     ACCESS:     200636  HIT:     200636  MISS:          0  HIT %:        100  MISS %:          0   MPKI: 0
PSCL4 LOAD TRANSLATION ACCESS:      11516  HIT:      11516  MISS:          0  HIT %:        100  MISS %:          0   MPKI: 0
PSCL4 PREFETCH TRANSLATION ACCESS:     189120  HIT:     189120  MISS:          0  HIT %:        100  MISS %:          0   MPKI: 0
PSCL4 PREFETCH  REQUESTED:          0  ISSUED:          0  USEFUL:          0  USELESS:          0
PSCL4 USEFUL LOAD PREFETCHES:          0 PREFETCH ISSUED TO LOWER LEVEL:          0  ACCURACY: -nan
PSCL4 TIMELY PREFETCHES:          0 LATE PREFETCHES: 0 DROPPED PREFETCHES: 0
PSCL4 PREFETCHES SAME FILL-ORIGIN LEVEL: 0 DIFFERENT FILL-ORIGIN LEVEL: 0

PSCL3 TOTAL     ACCESS:     200635  HIT:     200635  MISS:          0  HIT %:        100  MISS %:          0   MPKI: 0
PSCL3 LOAD TRANSLATION ACCESS:      11516  HIT:      11516  MISS:          0  HIT %:        100  MISS %:          0   MPKI: 0
PSCL3 PREFETCH TRANSLATION ACCESS:     189119  HIT:     189119  MISS:          0  HIT %:        100  MISS %:          0   MPKI: 0
PSCL3 PREFETCH  REQUESTED:          0  ISSUED:          0  USEFUL:          0  USELESS:          0
PSCL3 USEFUL LOAD PREFETCHES:          0 PREFETCH ISSUED TO LOWER LEVEL:          0  ACCURACY: -nan
PSCL3 TIMELY PREFETCHES:          0 LATE PREFETCHES: 0 DROPPED PREFETCHES: 0
PSCL3 PREFETCHES SAME FILL-ORIGIN LEVEL: 0 DIFFERENT FILL-ORIGIN LEVEL: 0

PSCL2 TOTAL     ACCESS:      72678  HIT:      71593  MISS:       1085  HIT %:    98.5071  MISS %:    1.49289   MPKI: 0.0434
PSCL2 LOAD TRANSLATION ACCESS:      11750  HIT:      10665  MISS:       1085  HIT %:     90.766  MISS %:    9.23404   MPKI: 0.0434
PSCL2 PREFETCH TRANSLATION ACCESS:      60928  HIT:      60928  MISS:          0  HIT %:        100  MISS %:          0   MPKI: 0
PSCL2 PREFETCH  REQUESTED:          0  ISSUED:          0  USEFUL:          0  USELESS:          0
PSCL2 USEFUL LOAD PREFETCHES:          0 PREFETCH ISSUED TO LOWER LEVEL:          0  ACCURACY: -nan
PSCL2 TIMELY PREFETCHES:          0 LATE PREFETCHES: 0 DROPPED PREFETCHES: 0
PSCL2 PREFETCHES SAME FILL-ORIGIN LEVEL: 0 DIFFERENT FILL-ORIGIN LEVEL: 0

LLC TOTAL     ACCESS:    4315018  HIT:    1815830  MISS:    2499188  HIT %:    42.0816  MISS %:    57.9184   MPKI: 99.9675
LLC LOAD      ACCESS:     816373  HIT:     338864  MISS:     477509  HIT %:    41.5085  MISS %:    58.4915   MPKI: 19.1004
LLC RFO       ACCESS:      59737  HIT:      29119  MISS:      30618  HIT %:    48.7453  MISS %:    51.2547   MPKI: 1.22472
LLC PREFETCH  ACCESS:    3151481  HIT:    1178899  MISS:    1972582  HIT %:    37.4078  MISS %:    62.5922   MPKI: 78.9033
AGUS PREFETCH L1 MISS: 0
LLC WRITEBACK ACCESS:     250845  HIT:     247411  MISS:       3434  HIT %:     98.631  MISS %:    1.36897   MPKI: 0.13736
LLC LOAD TRANSLATION ACCESS:       7126  HIT:       3053  MISS:       4073  HIT %:    42.8431  MISS %:    57.1569   MPKI: 0.16292
LLC PREFETCH TRANSLATION ACCESS:      29456  HIT:      18484  MISS:      10972  HIT %:    62.7512  MISS %:    37.2488   MPKI: 0.43888
LLC PREFETCH  REQUESTED:          0  ISSUED:          0  USEFUL:     140516  USELESS:    1837209
LLC USEFUL LOAD PREFETCHES:     140516 PREFETCH ISSUED TO LOWER LEVEL:    1972583  ACCURACY: 7.12345
LLC TIMELY PREFETCHES:     140516 LATE PREFETCHES: 0 DROPPED PREFETCHES: 0
LLC PREFETCHES SAME FILL-ORIGIN LEVEL: 0 DIFFERENT FILL-ORIGIN LEVEL: 0
LLC AVERAGE MISS LATENCY: 162.112 cycles
LLC RQ	ACCESS:     912695	FORWARD:          0	MERGED:          0	TO_CACHE:     912692
LLC WQ	ACCESS:     250845	FORWARD:          4	MERGED:          0	TO_CACHE:     250845
LLC PQ	ACCESS:    3151482	FORWARD:          0	MERGED:          0	TO_CACHE:    3151481

LLC Dense regions hint to LLC: 0

RAW hits: 5020
Loads Generated: 9070623
Loads sent to L1D: 9065603
Stores Generated: 639919
Stores sent to L1D: 639920
Major fault: 0 Minor fault: 7709
Allocated PAGES: 7709
CPU 0 L1D nextline prefetcher final stats
Degree: 5
CPU 0 STLB arbitrary stride prefetcher final stats

DRAM Statistics
 CHANNEL 0
 RQ ROW_BUFFER_HIT:    1224034  ROW_BUFFER_MISS:    1271276
 DBUS_CONGESTED:       1984
 WQ ROW_BUFFER_HIT:      59488  ROW_BUFFER_MISS:     159836  FULL:          0

 AVG_CONGESTED_CYCLE: 4
 All warmup complete: 2
Channel 0 Bank busy for read cycles: 0
Channel 0 Bank busy for write cycles: 0
Channel 0
Rank 0
0banks busy for read cycles: 561891
0banks busy for write cycles: 2882
1banks busy for read cycles: 13915767
1banks busy for write cycles: 683015
2banks busy for read cycles: 7885589
2banks busy for write cycles: 879675
3banks busy for read cycles: 6475640
3banks busy for write cycles: 1101268
4banks busy for read cycles: 6297781
4banks busy for write cycles: 1373117
5banks busy for read cycles: 6951220
5banks busy for write cycles: 1668098
6banks busy for read cycles: 9088241
6banks busy for write cycles: 2084078
7banks busy for read cycles: 6147897
7banks busy for write cycles: 2901006
8banks busy for read cycles: 5666679
8banks busy for write cycles: 5921604

CPU 0 Branch Prediction Accuracy: 94.0604% MPKI: 8.75416 Average ROB Occupancy at Mispredict: 79.4329
Branch types
NOT_BRANCH: 21315003 85.26%
BRANCH_DIRECT_JUMP: 1031131 4.12452%
BRANCH_INDIRECT: 0 0%
BRANCH_CONDITIONAL: 2651938 10.6078%
BRANCH_DIRECT_CALL: 783 0.003132%
BRANCH_INDIRECT_CALL: 0 0%
BRANCH_RETURN: 783 0.003132%
BRANCH_OTHER: 0 0%

DRAM PAGES: 1048576
Allocated PAGES: 7709
