
*** ChampSim Multicore Out-of-Order Simulator ***

Warmup Instructions: 25000000
Simulation Instructions: 25000000
Number of CPUs: 1
LLC sets: 2048
LLC ways: 16
Off-chip DRAM Size: 4096 MB Channels: 1 Width: 64-bit Data Rate: 6400 MT/s
CPU 0 runs ../../../../../traces/sssp-14.trace.gz
.gz
CPU 0 Bimodal branch predictor
BTB has LRU replacement policy
ITLB has LRU replacement policy
DTLB has LRU replacement policy
STLB has LRU replacement policy
L1I has LRU replacement policy
CPU 0 L1D Next-line prefetcher
L1D has LRU replacement policy
L2C has LRU replacement policy
LLC has LRU replacement policy
Heartbeat CPU 0 instructions: 10000001 cycles: 3081519 heartbeat IPC: 3.24515 cumulative IPC: 3.24515 (Simulation time: 0 hr 0 min 14 sec) 
Heartbeat CPU 0 instructions: 20000003 cycles: 6128771 heartbeat IPC: 3.28165 cumulative IPC: 3.2633 (Simulation time: 0 hr 0 min 28 sec) 

Warmup complete CPU 0 instructions: 25000002 cycles: 7663680 (Simulation time: 0 hr 0 min 36 sec) 

Heartbeat CPU 0 instructions: 30000001 cycles: 24528861 heartbeat IPC: 0.543476 cumulative IPC: 0.296469 (Simulation time: 0 hr 0 min 48 sec) 
Heartbeat CPU 0 instructions: 40000003 cycles: 56123232 heartbeat IPC: 0.316512 cumulative IPC: 0.309537 (Simulation time: 0 hr 1 min 13 sec) 
Heartbeat CPU 0 instructions: 50000000 cycles: 86675346 heartbeat IPC: 0.327309 cumulative IPC: 0.316409 (Simulation time: 0 hr 1 min 40 sec) 
Finished CPU 0 instructions: 25000002 cycles: 79011667 cumulative IPC: 0.316409 (Simulation time: 0 hr 1 min 40 sec) 

ChampSim completed all CPUs

Region of Interest Statistics

CPU 0 cumulative IPC: 0.316409 instructions: 25000002 cycles: 79011667
ITLB TOTAL     ACCESS:    2529608  HIT:    2529608  MISS:          0  HIT %:        100  MISS %:          0   MPKI: 0
ITLB LOAD TRANSLATION ACCESS:    2529608  HIT:    2529608  MISS:          0  HIT %:        100  MISS %:          0   MPKI: 0
ITLB PREFETCH  REQUESTED:          0  ISSUED:          0  USEFUL:          0  USELESS:          0
ITLB USEFUL LOAD PREFETCHES:          0 PREFETCH ISSUED TO LOWER LEVEL:          0  ACCURACY: -nan
ITLB TIMELY PREFETCHES:          0 LATE PREFETCHES: 0 DROPPED PREFETCHES: 0
ITLB PREFETCHES SAME FILL-ORIGIN LEVEL: 0 DIFFERENT FILL-ORIGIN LEVEL: 0
ITLB AVERAGE MISS LATENCY: -nan cycles
ITLB RQ	ACCESS:    2720282	FORWARD:          0	MERGED:     190675	TO_CACHE:    2529607

DTLB TOTAL     ACCESS:    4884603  HIT:    4473997  MISS:     410606  HIT %:    91.5939  MISS %:    8.40613   MPKI: 16.4242
DTLB LOAD TRANSLATION ACCESS:    4884603  HIT:    4473997  MISS:     410606  HIT %:    91.5939  MISS %:    8.40613   MPKI: 16.4242
DTLB PREFETCH  REQUESTED:          0  ISSUED:          0  USEFUL:          0  USELESS:          0
DTLB USEFUL LOAD PREFETCHES:          0 PREFETCH ISSUED TO LOWER LEVEL:          0  ACCURACY: -nan
DTLB TIMELY PREFETCHES:          0 LATE PREFETCHES: 0 DROPPED PREFETCHES: 0
DTLB PREFETCHES SAME FILL-ORIGIN LEVEL: 0 DIFFERENT FILL-ORIGIN LEVEL: 0
DTLB AVERAGE MISS LATENCY: 12.3041 cycles
DTLB RQ	ACCESS:    5482611	FORWARD:          0	MERGED:     576641	TO_CACHE:    4905970

STLB TOTAL     ACCESS:    3865325  HIT:    3859507  MISS:       5818  HIT %:    99.8495  MISS %:   0.150518   MPKI: 0.23272
STLB LOAD TRANSLATION ACCESS:     410606  HIT:     404788  MISS:       5818  HIT %:    98.5831  MISS %:    1.41693   MPKI: 0.23272
STLB TRANSLATION FROM L1D PREFETCHER ACCESS:    3454719  HIT:    3454719  MISS:          0  HIT %:        100  MISS %:          0   MPKI: 0
STLB PREFETCH  REQUESTED:          0  ISSUED:          0  USEFUL:          0  USELESS:          0
STLB USEFUL LOAD PREFETCHES:          0 PREFETCH ISSUED TO LOWER LEVEL:          0  ACCURACY: -nan
STLB TIMELY PREFETCHES:          0 LATE PREFETCHES: 0 DROPPED PREFETCHES: 0
STLB PREFETCHES SAME FILL-ORIGIN LEVEL: 0 DIFFERENT FILL-ORIGIN LEVEL: 0
STLB AVERAGE MISS LATENCY: 223.832 cycles
STLB RQ	ACCESS:   16523385	FORWARD:          0	MERGED:   12658060	TO_CACHE:    3865325

STLB Hit, L1D data hit: 0
STLB Hit, L2C data hit: 0
STLB Hit, LLC data hit: 0
STLB Hit, LLC data miss: 0
STLB STLB hints to L2: 0
L1D TOTAL     ACCESS:   20958192  HIT:   16378501  MISS:    4579691  HIT %:    78.1484  MISS %:    21.8516   MPKI: 183.188
L1D LOAD      ACCESS:    4826985  HIT:    3862902  MISS:     964083  HIT %:    80.0272  MISS %:    19.9728   MPKI: 38.5633
L1D RFO       ACCESS:     590487  HIT:     416883  MISS:     173604  HIT %:    70.5999  MISS %:    29.4001   MPKI: 6.94416
L1D PREFETCH  ACCESS:   15540720  HIT:   12098716  MISS:    3442004  HIT %:    77.8517  MISS %:    22.1483   MPKI: 137.68
AGUS PREFETCH L1 MISS: 0
L1D PREFETCH  REQUESTED:   39635071  ISSUED:   37310009  USEFUL:     263364  USELESS:    3178548
L1D USEFUL LOAD PREFETCHES:     263364 PREFETCH ISSUED TO LOWER LEVEL:    3495456  ACCURACY: 7.53447
L1D TIMELY PREFETCHES:     263364 LATE PREFETCHES: 53445 DROPPED PREFETCHES: 0
L1D PREFETCHES SAME FILL-ORIGIN LEVEL: 3495456 DIFFERENT FILL-ORIGIN LEVEL: 0
L1D AVERAGE MISS LATENCY: 124.339 cycles
L1D RQ	ACCESS:    9065595	FORWARD:          0	MERGED:    4222536	TO_CACHE:    4843050
L1D WQ	ACCESS:     639920	FORWARD:         15	MERGED:        359	TO_CACHE:     639561
L1D PQ	ACCESS:   21197230	FORWARD:          0	MERGED:    5084445	TO_CACHE:   16112779

L1D UNIQUE REGIONS ACCESSED: 0
L1D REGIONS CONFLICTS: 0
L1D Cross Page Prefetch Requests: 0
L1D Same Page Prefetch Requests: 35534116
L1D ROI Sum of L1D PQ occupancy: 272744255
L1D PREFETCHES PUSHED FROM L2C: 0
L1I TOTAL     ACCESS:    2720283  HIT:    2720283  MISS:          0  HIT %:        100  MISS %:          0   MPKI: 0
L1I LOAD      ACCESS:    2720283  HIT:    2720283  MISS:          0  HIT %:        100  MISS %:          0   MPKI: 0
L1I PREFETCH  REQUESTED:          0  ISSUED:          0  USEFUL:          0  USELESS:          0
L1I USEFUL LOAD PREFETCHES:          0 PREFETCH ISSUED TO LOWER LEVEL:          0  ACCURACY: -nan
L1I TIMELY PREFETCHES:          0 LATE PREFETCHES: 0 DROPPED PREFETCHES: 0
L1I PREFETCHES SAME FILL-ORIGIN LEVEL: 0 DIFFERENT FILL-ORIGIN LEVEL: 0
L1I AVERAGE MISS LATENCY: -nan cycles
L1I RQ	ACCESS:    4594047	FORWARD:          0	MERGED:    1873765	TO_CACHE:    2720282

BTB TOTAL     ACCESS:    3484641  HIT:    3484518  MISS:        123  HIT %:    99.9965  MISS %: 0.00352978   MPKI: 0.00492
BTB BRANCH_DIRECT_JUMP	ACCESS:    1031131  HIT:    1031096  MISS:         35
BTB BRANCH_INDIRECT	ACCESS:          0  HIT:          0  MISS:          0
BTB BRANCH_CONDITIONAL	ACCESS:    2451944  HIT:    2451871  MISS:         73
BTB BRANCH_DIRECT_CALL	ACCESS:        783  HIT:        777  MISS:          6
BTB BRANCH_INDIRECT_CALL	ACCESS:          0  HIT:          0  MISS:          0
BTB BRANCH_RETURN	ACCESS:        783  HIT:        774  MISS:          9
BTB BRANCH_OTHER ACCESS:          0  HIT:          0  MISS:          0

L2C TOTAL     ACCESS:    5027131  HIT:    1005653  MISS:    4021478  HIT %:    20.0045  MISS %:    79.9955   MPKI: 160.859
L2C LOAD      ACCESS:     910618  HIT:      95483  MISS:     815135  HIT %:    10.4855  MISS %:    89.5145   MPKI: 32.6054
L2C DATA LOAD MPKI: 32.6054
L2C INSTRUCTION LOAD MPKI: 0
L2C RFO       ACCESS:     173578  HIT:     114242  MISS:      59336  HIT %:    65.8159  MISS %:    34.1841   MPKI: 2.37344
L2C PREFETCH  ACCESS:    3495373  HIT:     354327  MISS:    3141046  HIT %:     10.137  MISS %:     89.863   MPKI: 125.642
AGUS PREFETCH L1 MISS: 0
L2C DATA PREFETCH MPKI: 125.642
L2C INSTRUCTION PREFETCH MPKI: 0
L2C WRITEBACK ACCESS:     440911  HIT:     439245  MISS:       1666  HIT %:    99.6221  MISS %:   0.377854   MPKI: 0.06664
L2C LOAD TRANSLATION ACCESS:       6651  HIT:       2356  MISS:       4295  HIT %:    35.4232  MISS %:    64.5768   MPKI: 0.1718
L2C PREFETCH  REQUESTED:          0  ISSUED:          0  USEFUL:      22392  USELESS:    3117050
L2C USEFUL LOAD PREFETCHES:      22392 PREFETCH ISSUED TO LOWER LEVEL:    3141046  ACCURACY: 0.712884
L2C TIMELY PREFETCHES:      22392 LATE PREFETCHES: 0 DROPPED PREFETCHES: 0
L2C PREFETCHES SAME FILL-ORIGIN LEVEL: 0 DIFFERENT FILL-ORIGIN LEVEL: 0
L2C AVERAGE MISS LATENCY: 127.101 cycles
L2C RQ	ACCESS:    1090885	FORWARD:          0	MERGED:          0	TO_CACHE:    1090847
L2C WQ	ACCESS:     440911	FORWARD:        121	MERGED:          0	TO_CACHE:     440911
L2C PQ	ACCESS:    3495456	FORWARD:          0	MERGED:          0	TO_CACHE:    3495373

L2C Instructions Evicting Data 0
L2C Translations Evicting Data 4291
L2C Data Evicting Data 4011225
L2C Instructions Evicting Instructions 0
L2C Translations Evicting Instructions 0
L2C Data Evicting Instructions 0
L2C Instructions Evicting Translations 0
L2C Translations Evicting Translations 4
L2C Data Evicting Translations 4292
L2C Dense regions hint from L2: 0
PSCL5 TOTAL     ACCESS:       5818  HIT:       5818  MISS:          0  HIT %:        100  MISS %:          0   MPKI: 0
PSCL5 LOAD TRANSLATION ACCESS:       5818  HIT:       5818  MISS:          0  HIT %:        100  MISS %:          0   MPKI: 0
PSCL5 PREFETCH  REQUESTED:          0  ISSUED:          0  USEFUL:          0  USELESS:          0
PSCL5 USEFUL LOAD PREFETCHES:          0 PREFETCH ISSUED TO LOWER LEVEL:          0  ACCURACY: -nan
PSCL5 TIMELY PREFETCHES:          0 LATE PREFETCHES: 0 DROPPED PREFETCHES: 0
PSCL5 PREFETCHES SAME FILL-ORIGIN LEVEL: 0 DIFFERENT FILL-ORIGIN LEVEL: 0

PSCL4 TOTAL     ACCESS:       5818  HIT:       5818  MISS:          0  HIT %:        100  MISS %:          0   MPKI: 0
PSCL4 LOAD TRANSLATION ACCESS:       5818  HIT:       5818  MISS:          0  HIT %:        100  MISS %:          0   MPKI: 0
PSCL4 PREFETCH  REQUESTED:          0  ISSUED:          0  USEFUL:          0  USELESS:          0
PSCL4 USEFUL LOAD PREFETCHES:          0 PREFETCH ISSUED TO LOWER LEVEL:          0  ACCURACY: -nan
PSCL4 TIMELY PREFETCHES:          0 LATE PREFETCHES: 0 DROPPED PREFETCHES: 0
PSCL4 PREFETCHES SAME FILL-ORIGIN LEVEL: 0 DIFFERENT FILL-ORIGIN LEVEL: 0

PSCL3 TOTAL     ACCESS:       5818  HIT:       5818  MISS:          0  HIT %:        100  MISS %:          0   MPKI: 0
PSCL3 LOAD TRANSLATION ACCESS:       5818  HIT:       5818  MISS:          0  HIT %:        100  MISS %:          0   MPKI: 0
PSCL3 PREFETCH  REQUESTED:          0  ISSUED:          0  USEFUL:          0  USELESS:          0
PSCL3 USEFUL LOAD PREFETCHES:          0 PREFETCH ISSUED TO LOWER LEVEL:          0  ACCURACY: -nan
PSCL3 TIMELY PREFETCHES:          0 LATE PREFETCHES: 0 DROPPED PREFETCHES: 0
PSCL3 PREFETCHES SAME FILL-ORIGIN LEVEL: 0 DIFFERENT FILL-ORIGIN LEVEL: 0

PSCL2 TOTAL     ACCESS:       5818  HIT:       4982  MISS:        836  HIT %:    85.6308  MISS %:    14.3692   MPKI: 0.03344
PSCL2 LOAD TRANSLATION ACCESS:       5818  HIT:       4982  MISS:        836  HIT %:    85.6308  MISS %:    14.3692   MPKI: 0.03344
PSCL2 PREFETCH  REQUESTED:          0  ISSUED:          0  USEFUL:          0  USELESS:          0
PSCL2 USEFUL LOAD PREFETCHES:          0 PREFETCH ISSUED TO LOWER LEVEL:          0  ACCURACY: -nan
PSCL2 TIMELY PREFETCHES:          0 LATE PREFETCHES: 0 DROPPED PREFETCHES: 0
PSCL2 PREFETCHES SAME FILL-ORIGIN LEVEL: 0 DIFFERENT FILL-ORIGIN LEVEL: 0

LLC TOTAL     ACCESS:    4270246  HIT:    1800755  MISS:    2469491  HIT %:    42.1698  MISS %:    57.8302   MPKI: 98.7796
LLC LOAD      ACCESS:     815135  HIT:     340675  MISS:     474460  HIT %:    41.7937  MISS %:    58.2063   MPKI: 18.9784
LLC RFO       ACCESS:      59335  HIT:      28786  MISS:      30549  HIT %:    48.5144  MISS %:    51.4856   MPKI: 1.22196
LLC PREFETCH  ACCESS:    3141045  HIT:    1183880  MISS:    1957165  HIT %:    37.6906  MISS %:    62.3094   MPKI: 78.2866
AGUS PREFETCH L1 MISS: 0
LLC WRITEBACK ACCESS:     250436  HIT:     246999  MISS:       3437  HIT %:    98.6276  MISS %:    1.37241   MPKI: 0.13748
LLC LOAD TRANSLATION ACCESS:       4295  HIT:        415  MISS:       3880  HIT %:     9.6624  MISS %:    90.3376   MPKI: 0.1552
LLC PREFETCH  REQUESTED:          0  ISSUED:          0  USEFUL:     137051  USELESS:    1814266
LLC USEFUL LOAD PREFETCHES:     137051 PREFETCH ISSUED TO LOWER LEVEL:    1957166  ACCURACY: 7.00252
LLC TIMELY PREFETCHES:     137051 LATE PREFETCHES: 0 DROPPED PREFETCHES: 0
LLC PREFETCHES SAME FILL-ORIGIN LEVEL: 0 DIFFERENT FILL-ORIGIN LEVEL: 0
LLC AVERAGE MISS LATENCY: 161.233 cycles
LLC RQ	ACCESS:     878766	FORWARD:          0	MERGED:          0	TO_CACHE:     878765
LLC WQ	ACCESS:     250436	FORWARD:          2	MERGED:          0	TO_CACHE:     250436
LLC PQ	ACCESS:    3141046	FORWARD:          0	MERGED:          0	TO_CACHE:    3141045

LLC Dense regions hint to LLC: 0

RAW hits: 5028
Loads Generated: 9070623
Loads sent to L1D: 9065595
Stores Generated: 639919
Stores sent to L1D: 639920
Major fault: 0 Minor fault: 7709
Allocated PAGES: 7709
CPU 0 L1D nextline prefetcher final stats
Degree: 5

DRAM Statistics
 CHANNEL 0
 RQ ROW_BUFFER_HIT:    1212417  ROW_BUFFER_MISS:    1253193
 DBUS_CONGESTED:       2007
 WQ ROW_BUFFER_HIT:      59815  ROW_BUFFER_MISS:     159395  FULL:          0

 AVG_CONGESTED_CYCLE: 5
 All warmup complete: 2
Channel 0 Bank busy for read cycles: 0
Channel 0 Bank busy for write cycles: 0
Channel 0
Rank 0
0banks busy for read cycles: 609349
0banks busy for write cycles: 3277
1banks busy for read cycles: 13743975
1banks busy for write cycles: 751273
2banks busy for read cycles: 7710033
2banks busy for write cycles: 964715
3banks busy for read cycles: 6395022
3banks busy for write cycles: 1165120
4banks busy for read cycles: 6276375
4banks busy for write cycles: 1395838
5banks busy for read cycles: 6924067
5banks busy for write cycles: 1725226
6banks busy for read cycles: 9026943
6banks busy for write cycles: 2066578
7banks busy for read cycles: 6004133
7banks busy for write cycles: 2943604
8banks busy for read cycles: 5549927
8banks busy for write cycles: 5756213

CPU 0 Branch Prediction Accuracy: 94.0604% MPKI: 8.75416 Average ROB Occupancy at Mispredict: 79.4334
Branch types
NOT_BRANCH: 21315003 85.26%
BRANCH_DIRECT_JUMP: 1031131 4.12452%
BRANCH_INDIRECT: 0 0%
BRANCH_CONDITIONAL: 2651938 10.6078%
BRANCH_DIRECT_CALL: 783 0.003132%
BRANCH_INDIRECT_CALL: 0 0%
BRANCH_RETURN: 783 0.003132%
BRANCH_OTHER: 0 0%

DRAM PAGES: 1048576
Allocated PAGES: 7709
