
*** ChampSim Multicore Out-of-Order Simulator ***

Warmup Instructions: 25000000
Simulation Instructions: 25000000
Number of CPUs: 1
LLC sets: 2048
LLC ways: 16
Off-chip DRAM Size: 4096 MB Channels: 1 Width: 64-bit Data Rate: 6400 MT/s
CPU 0 runs ../../../../../traces/sssp-14.trace.gz
.gz
CPU 0 Bimodal branch predictor
BTB has LRU replacement policy
ITLB has LRU replacement policy
DTLB has LRU replacement policy
STLB has LRU replacement policy
L1I has LRU replacement policy
CPU 0 L1D Next-line prefetcher
L1D has LRU replacement policy
L2C has LRU replacement policy
LLC has LRU replacement policy
Heartbeat CPU 0 instructions: 10000001 cycles: 3081804 heartbeat IPC: 3.24485 cumulative IPC: 3.24485 (Simulation time: 0 hr 0 min 13 sec) 
Heartbeat CPU 0 instructions: 20000003 cycles: 6129296 heartbeat IPC: 3.28139 cumulative IPC: 3.26302 (Simulation time: 0 hr 0 min 27 sec) 

Warmup complete CPU 0 instructions: 25000002 cycles: 7664413 (Simulation time: 0 hr 0 min 34 sec) 

Heartbeat CPU 0 instructions: 30000001 cycles: 24560406 heartbeat IPC: 0.542561 cumulative IPC: 0.295928 (Simulation time: 0 hr 0 min 47 sec) 
Heartbeat CPU 0 instructions: 40000003 cycles: 56299871 heartbeat IPC: 0.315065 cumulative IPC: 0.308417 (Simulation time: 0 hr 1 min 12 sec) 
Heartbeat CPU 0 instructions: 50000000 cycles: 86977778 heartbeat IPC: 0.325967 cumulative IPC: 0.315205 (Simulation time: 0 hr 1 min 38 sec) 
Finished CPU 0 instructions: 25000002 cycles: 79313366 cumulative IPC: 0.315205 (Simulation time: 0 hr 1 min 38 sec) 

ChampSim completed all CPUs

Region of Interest Statistics

CPU 0 cumulative IPC: 0.315205 instructions: 25000002 cycles: 79313366
ITLB TOTAL     ACCESS:    2529909  HIT:    2529909  MISS:          0  HIT %:        100  MISS %:          0   MPKI: 0
ITLB LOAD TRANSLATION ACCESS:    2529909  HIT:    2529909  MISS:          0  HIT %:        100  MISS %:          0   MPKI: 0
ITLB PREFETCH  REQUESTED:          0  ISSUED:          0  USEFUL:          0  USELESS:          0
ITLB USEFUL LOAD PREFETCHES:          0 PREFETCH ISSUED TO LOWER LEVEL:          0  ACCURACY: -nan
ITLB TIMELY PREFETCHES:          0 LATE PREFETCHES: 0 DROPPED PREFETCHES: 0
ITLB PREFETCHES SAME FILL-ORIGIN LEVEL: 0 DIFFERENT FILL-ORIGIN LEVEL: 0
ITLB AVERAGE MISS LATENCY: -nan cycles
ITLB RQ	ACCESS:    2720540	FORWARD:          0	MERGED:     190632	TO_CACHE:    2529908

DTLB TOTAL     ACCESS:    4885678  HIT:    4475073  MISS:     410605  HIT %:    91.5957  MISS %:    8.40426   MPKI: 16.4242
DTLB LOAD TRANSLATION ACCESS:    4885678  HIT:    4475073  MISS:     410605  HIT %:    91.5957  MISS %:    8.40426   MPKI: 16.4242
DTLB PREFETCH  REQUESTED:          0  ISSUED:          0  USEFUL:          0  USELESS:          0
DTLB USEFUL LOAD PREFETCHES:          0 PREFETCH ISSUED TO LOWER LEVEL:          0  ACCURACY: -nan
DTLB TIMELY PREFETCHES:          0 LATE PREFETCHES: 0 DROPPED PREFETCHES: 0
DTLB PREFETCHES SAME FILL-ORIGIN LEVEL: 0 DIFFERENT FILL-ORIGIN LEVEL: 0
DTLB AVERAGE MISS LATENCY: 12.7132 cycles
DTLB RQ	ACCESS:    5483497	FORWARD:          0	MERGED:     576775	TO_CACHE:    4906722

STLB TOTAL     ACCESS:    4247567  HIT:    4221806  MISS:      25761  HIT %:    99.3935  MISS %:   0.606488   MPKI: 1.03044
STLB LOAD TRANSLATION ACCESS:     410605  HIT:     401218  MISS:       9387  HIT %:    97.7139  MISS %:    2.28614   MPKI: 0.37548
STLB PREFETCH TRANSLATION ACCESS:     381717  HIT:     365343  MISS:      16374  HIT %:    95.7104  MISS %:    4.28957   MPKI: 0.65496
STLB TRANSLATION FROM L1D PREFETCHER ACCESS:    3455245  HIT:    3455245  MISS:          0  HIT %:        100  MISS %:          0   MPKI: 0
STLB PREFETCH  REQUESTED:     821210  ISSUED:     821184  USEFUL:       6125  USELESS:      10128
STLB USEFUL LOAD PREFETCHES:       6125 PREFETCH ISSUED TO LOWER LEVEL:     444450  ACCURACY: 1.37811
STLB TIMELY PREFETCHES:       6125 LATE PREFETCHES: 1075 DROPPED PREFETCHES: 427001
STLB PREFETCHES SAME FILL-ORIGIN LEVEL: 444450 DIFFERENT FILL-ORIGIN LEVEL: 0
STLB AVERAGE MISS LATENCY: 128.382 cycles
STLB RQ	ACCESS:   16527524	FORWARD:          0	MERGED:   12661674	TO_CACHE:    3865850
STLB PQ	ACCESS:     821184	FORWARD:          0	MERGED:      10171	TO_CACHE:     811013

STLB Hit, L1D data hit: 0
STLB Hit, L2C data hit: 0
STLB Hit, LLC data hit: 0
STLB Hit, LLC data miss: 0
STLB STLB hints to L2: 0
L1D TOTAL     ACCESS:   20960726  HIT:   16376279  MISS:    4584447  HIT %:    78.1284  MISS %:    21.8716   MPKI: 183.378
L1D LOAD      ACCESS:    4827412  HIT:    3863149  MISS:     964263  HIT %:    80.0253  MISS %:    19.9747   MPKI: 38.5705
L1D RFO       ACCESS:     590516  HIT:     416910  MISS:     173606  HIT %:     70.601  MISS %:     29.399   MPKI: 6.94424
L1D PREFETCH  ACCESS:   15542798  HIT:   12096220  MISS:    3446578  HIT %:    77.8252  MISS %:    22.1748   MPKI: 137.863
AGUS PREFETCH L1 MISS: 0
L1D PREFETCH  REQUESTED:   39643556  ISSUED:   37318431  USEFUL:     263197  USELESS:    3183286
L1D USEFUL LOAD PREFETCHES:     263197 PREFETCH ISSUED TO LOWER LEVEL:    3500225  ACCURACY: 7.51943
L1D TIMELY PREFETCHES:     263197 LATE PREFETCHES: 53640 DROPPED PREFETCHES: 0
L1D PREFETCHES SAME FILL-ORIGIN LEVEL: 3500225 DIFFERENT FILL-ORIGIN LEVEL: 0
L1D AVERAGE MISS LATENCY: 125.119 cycles
L1D RQ	ACCESS:    9065609	FORWARD:          0	MERGED:    4221658	TO_CACHE:    4843936
L1D WQ	ACCESS:     639920	FORWARD:         21	MERGED:        359	TO_CACHE:     639561
L1D PQ	ACCESS:   21201512	FORWARD:          0	MERGED:    5084587	TO_CACHE:   16116919

L1D UNIQUE REGIONS ACCESSED: 0
L1D REGIONS CONFLICTS: 0
L1D Cross Page Prefetch Requests: 0
L1D Same Page Prefetch Requests: 35532182
L1D ROI Sum of L1D PQ occupancy: 273538971
L1D PREFETCHES PUSHED FROM L2C: 0
L1I TOTAL     ACCESS:    2720541  HIT:    2720541  MISS:          0  HIT %:        100  MISS %:          0   MPKI: 0
L1I LOAD      ACCESS:    2720541  HIT:    2720541  MISS:          0  HIT %:        100  MISS %:          0   MPKI: 0
L1I PREFETCH  REQUESTED:          0  ISSUED:          0  USEFUL:          0  USELESS:          0
L1I USEFUL LOAD PREFETCHES:          0 PREFETCH ISSUED TO LOWER LEVEL:          0  ACCURACY: -nan
L1I TIMELY PREFETCHES:          0 LATE PREFETCHES: 0 DROPPED PREFETCHES: 0
L1I PREFETCHES SAME FILL-ORIGIN LEVEL: 0 DIFFERENT FILL-ORIGIN LEVEL: 0
L1I AVERAGE MISS LATENCY: -nan cycles
L1I RQ	ACCESS:    4594212	FORWARD:          0	MERGED:    1873672	TO_CACHE:    2720540

BTB TOTAL     ACCESS:    3484641  HIT:    3484518  MISS:        123  HIT %:    99.9965  MISS %: 0.00352978   MPKI: 0.00492
BTB BRANCH_DIRECT_JUMP	ACCESS:    1031131  HIT:    1031096  MISS:         35
BTB BRANCH_INDIRECT	ACCESS:          0  HIT:          0  MISS:          0
BTB BRANCH_CONDITIONAL	ACCESS:    2451944  HIT:    2451871  MISS:         73
BTB BRANCH_DIRECT_CALL	ACCESS:        783  HIT:        777  MISS:          6
BTB BRANCH_INDIRECT_CALL	ACCESS:          0  HIT:          0  MISS:          0
BTB BRANCH_RETURN	ACCESS:        783  HIT:        774  MISS:          9
BTB BRANCH_OTHER ACCESS:          0  HIT:          0  MISS:          0

L2C TOTAL     ACCESS:    5479515  HIT:    1429512  MISS:    4050003  HIT %:    26.0883  MISS %:    73.9117   MPKI: 162
L2C LOAD      ACCESS:     910605  HIT:      94780  MISS:     815825  HIT %:    10.4085  MISS %:    89.5915   MPKI: 32.633
L2C DATA LOAD MPKI: 32.633
L2C INSTRUCTION LOAD MPKI: 0
L2C RFO       ACCESS:     173581  HIT:     114040  MISS:      59541  HIT %:    65.6984  MISS %:    34.3016   MPKI: 2.38164
L2C PREFETCH  ACCESS:    3500158  HIT:     352438  MISS:    3147720  HIT %:    10.0692  MISS %:    89.9308   MPKI: 125.909
AGUS PREFETCH L1 MISS: 0
L2C DATA PREFETCH MPKI: 125.909
L2C INSTRUCTION PREFETCH MPKI: 0
L2C WRITEBACK ACCESS:     440908  HIT:     439248  MISS:       1660  HIT %:    99.6235  MISS %:   0.376496   MPKI: 0.0664
L2C LOAD TRANSLATION ACCESS:       9135  HIT:       3845  MISS:       5290  HIT %:    42.0909  MISS %:    57.9091   MPKI: 0.2116
L2C PREFETCH TRANSLATION ACCESS:     445128  HIT:     425161  MISS:      19967  HIT %:    95.5143  MISS %:    4.48568   MPKI: 0.79868
L2C PREFETCH  REQUESTED:          0  ISSUED:          0  USEFUL:      28519  USELESS:    3137564
L2C USEFUL LOAD PREFETCHES:      28519 PREFETCH ISSUED TO LOWER LEVEL:    3147720  ACCURACY: 0.906021
L2C TIMELY PREFETCHES:      28519 LATE PREFETCHES: 0 DROPPED PREFETCHES: 0
L2C PREFETCHES SAME FILL-ORIGIN LEVEL: 0 DIFFERENT FILL-ORIGIN LEVEL: 0
L2C AVERAGE MISS LATENCY: 127.676 cycles
L2C RQ	ACCESS:    1538484	FORWARD:          0	MERGED:          0	TO_CACHE:    1538449
L2C WQ	ACCESS:     440908	FORWARD:        102	MERGED:          0	TO_CACHE:     440908
L2C PQ	ACCESS:    3500225	FORWARD:          0	MERGED:          0	TO_CACHE:    3500158

L2C Instructions Evicting Data 0
L2C Translations Evicting Data 25225
L2C Data Evicting Data 3997871
L2C Instructions Evicting Instructions 0
L2C Translations Evicting Instructions 0
L2C Data Evicting Instructions 0
L2C Instructions Evicting Translations 0
L2C Translations Evicting Translations 32
L2C Data Evicting Translations 25215
L2C Dense regions hint from L2: 0
PSCL5 TOTAL     ACCESS:      42172  HIT:      42172  MISS:          0  HIT %:        100  MISS %:          0   MPKI: 0
PSCL5 LOAD TRANSLATION ACCESS:       8316  HIT:       8316  MISS:          0  HIT %:        100  MISS %:          0   MPKI: 0
PSCL5 PREFETCH TRANSLATION ACCESS:      33856  HIT:      33856  MISS:          0  HIT %:        100  MISS %:          0   MPKI: 0
PSCL5 PREFETCH  REQUESTED:          0  ISSUED:          0  USEFUL:          0  USELESS:          0
PSCL5 USEFUL LOAD PREFETCHES:          0 PREFETCH ISSUED TO LOWER LEVEL:          0  ACCURACY: -nan
PSCL5 TIMELY PREFETCHES:          0 LATE PREFETCHES: 0 DROPPED PREFETCHES: 0
PSCL5 PREFETCHES SAME FILL-ORIGIN LEVEL: 0 DIFFERENT FILL-ORIGIN LEVEL: 0

PSCL4 TOTAL     ACCESS:      42172  HIT:      42172  MISS:          0  HIT %:        100  MISS %:          0   MPKI: 0
PSCL4 LOAD TRANSLATION ACCESS:       8316  HIT:       8316  MISS:          0  HIT %:        100  MISS %:          0   MPKI: 0
PSCL4 PREFETCH TRANSLATION ACCESS:      33856  HIT:      33856  MISS:          0  HIT %:        100  MISS %:          0   MPKI: 0
PSCL4 PREFETCH  REQUESTED:          0  ISSUED:          0  USEFUL:          0  USELESS:          0
PSCL4 USEFUL LOAD PREFETCHES:          0 PREFETCH ISSUED TO LOWER LEVEL:          0  ACCURACY: -nan
PSCL4 TIMELY PREFETCHES:          0 LATE PREFETCHES: 0 DROPPED PREFETCHES: 0
PSCL4 PREFETCHES SAME FILL-ORIGIN LEVEL: 0 DIFFERENT FILL-ORIGIN LEVEL: 0

PSCL3 TOTAL     ACCESS:      42171  HIT:      42171  MISS:          0  HIT %:        100  MISS %:          0   MPKI: 0
PSCL3 LOAD TRANSLATION ACCESS:       8316  HIT:       8316  MISS:          0  HIT %:        100  MISS %:          0   MPKI: 0
PSCL3 PREFETCH TRANSLATION ACCESS:      33855  HIT:      33855  MISS:          0  HIT %:        100  MISS %:          0   MPKI: 0
PSCL3 PREFETCH  REQUESTED:          0  ISSUED:          0  USEFUL:          0  USELESS:          0
PSCL3 USEFUL LOAD PREFETCHES:          0 PREFETCH ISSUED TO LOWER LEVEL:          0  ACCURACY: -nan
PSCL3 TIMELY PREFETCHES:          0 LATE PREFETCHES: 0 DROPPED PREFETCHES: 0
PSCL3 PREFETCHES SAME FILL-ORIGIN LEVEL: 0 DIFFERENT FILL-ORIGIN LEVEL: 0

PSCL2 TOTAL     ACCESS:      38353  HIT:      37412  MISS:        941  HIT %:    97.5465  MISS %:    2.45352   MPKI: 0.03764
PSCL2 LOAD TRANSLATION ACCESS:       8435  HIT:       7494  MISS:        941  HIT %:    88.8441  MISS %:    11.1559   MPKI: 0.03764
PSCL2 PREFETCH TRANSLATION ACCESS:      29918  HIT:      29918  MISS:          0  HIT %:        100  MISS %:          0   MPKI: 0
PSCL2 PREFETCH  REQUESTED:          0  ISSUED:          0  USEFUL:          0  USELESS:          0
PSCL2 USEFUL LOAD PREFETCHES:          0 PREFETCH ISSUED TO LOWER LEVEL:          0  ACCURACY: -nan
PSCL2 TIMELY PREFETCHES:          0 LATE PREFETCHES: 0 DROPPED PREFETCHES: 0
PSCL2 PREFETCHES SAME FILL-ORIGIN LEVEL: 0 DIFFERENT FILL-ORIGIN LEVEL: 0

LLC TOTAL     ACCESS:    4298988  HIT:    1809456  MISS:    2489532  HIT %:    42.0903  MISS %:    57.9097   MPKI: 99.5813
LLC LOAD      ACCESS:     815825  HIT:     339390  MISS:     476435  HIT %:    41.6008  MISS %:    58.3992   MPKI: 19.0574
LLC RFO       ACCESS:      59539  HIT:      28958  MISS:      30581  HIT %:     48.637  MISS %:     51.363   MPKI: 1.22324
LLC PREFETCH  ACCESS:    3147719  HIT:    1180377  MISS:    1967342  HIT %:    37.4994  MISS %:    62.5006   MPKI: 78.6937
AGUS PREFETCH L1 MISS: 0
LLC WRITEBACK ACCESS:     250648  HIT:     247217  MISS:       3431  HIT %:    98.6311  MISS %:    1.36885   MPKI: 0.13724
LLC LOAD TRANSLATION ACCESS:       5290  HIT:       1973  MISS:       3317  HIT %:    37.2968  MISS %:    62.7032   MPKI: 0.13268
LLC PREFETCH TRANSLATION ACCESS:      19967  HIT:      11541  MISS:       8426  HIT %:    57.8004  MISS %:    42.1996   MPKI: 0.33704
LLC PREFETCH  REQUESTED:          0  ISSUED:          0  USEFUL:     140140  USELESS:    1829800
LLC USEFUL LOAD PREFETCHES:     140140 PREFETCH ISSUED TO LOWER LEVEL:    1967343  ACCURACY: 7.12331
LLC TIMELY PREFETCHES:     140140 LATE PREFETCHES: 0 DROPPED PREFETCHES: 0
LLC PREFETCHES SAME FILL-ORIGIN LEVEL: 0 DIFFERENT FILL-ORIGIN LEVEL: 0
LLC AVERAGE MISS LATENCY: 162.004 cycles
LLC RQ	ACCESS:     900623	FORWARD:          0	MERGED:          0	TO_CACHE:     900621
LLC WQ	ACCESS:     250648	FORWARD:          3	MERGED:          0	TO_CACHE:     250648
LLC PQ	ACCESS:    3147720	FORWARD:          0	MERGED:          0	TO_CACHE:    3147719

LLC Dense regions hint to LLC: 0

RAW hits: 5014
Loads Generated: 9070623
Loads sent to L1D: 9065609
Stores Generated: 639919
Stores sent to L1D: 639920
Major fault: 0 Minor fault: 7709
Allocated PAGES: 7709
CPU 0 L1D nextline prefetcher final stats
Degree: 5
CPU 0 STLB arbitrary stride prefetcher final stats

DRAM Statistics
 CHANNEL 0
 RQ ROW_BUFFER_HIT:    1219472  ROW_BUFFER_MISS:    1266178
 DBUS_CONGESTED:       1978
 WQ ROW_BUFFER_HIT:      59812  ROW_BUFFER_MISS:     159444  FULL:          0

 AVG_CONGESTED_CYCLE: 5
 All warmup complete: 2
Channel 0 Bank busy for read cycles: 0
Channel 0 Bank busy for write cycles: 0
Channel 0
Rank 0
0banks busy for read cycles: 555253
0banks busy for write cycles: 2963
1banks busy for read cycles: 13805880
1banks busy for write cycles: 707822
2banks busy for read cycles: 7836166
2banks busy for write cycles: 903331
3banks busy for read cycles: 6455890
3banks busy for write cycles: 1092783
4banks busy for read cycles: 6306821
4banks busy for write cycles: 1349952
5banks busy for read cycles: 6952981
5banks busy for write cycles: 1645095
6banks busy for read cycles: 9033990
6banks busy for write cycles: 2079678
7banks busy for read cycles: 6104375
7banks busy for write cycles: 2882579
8banks busy for read cycles: 5649069
8banks busy for write cycles: 5948739

CPU 0 Branch Prediction Accuracy: 94.0604% MPKI: 8.75416 Average ROB Occupancy at Mispredict: 79.4352
Branch types
NOT_BRANCH: 21315003 85.26%
BRANCH_DIRECT_JUMP: 1031131 4.12452%
BRANCH_INDIRECT: 0 0%
BRANCH_CONDITIONAL: 2651938 10.6078%
BRANCH_DIRECT_CALL: 783 0.003132%
BRANCH_INDIRECT_CALL: 0 0%
BRANCH_RETURN: 783 0.003132%
BRANCH_OTHER: 0 0%

DRAM PAGES: 1048576
Allocated PAGES: 7709
