
*** ChampSim Multicore Out-of-Order Simulator ***

Warmup Instructions: 25000000
Simulation Instructions: 25000000
Number of CPUs: 1
LLC sets: 2048
LLC ways: 16
Off-chip DRAM Size: 4096 MB Channels: 1 Width: 64-bit Data Rate: 6400 MT/s
CPU 0 runs ../../../../../traces/sssp-14.trace.gz
.gz
CPU 0 Bimodal branch predictor
BTB has LRU replacement policy
ITLB has LRU replacement policy
DTLB has LRU replacement policy
STLB has LRU replacement policy
L1I has LRU replacement policy
L1D has LRU replacement policy
L2C has LRU replacement policy
LLC has LRU replacement policy
Heartbeat CPU 0 instructions: 10000000 cycles: 3085983 heartbeat IPC: 3.24046 cumulative IPC: 3.24046 (Simulation time: 0 hr 0 min 12 sec) 
Heartbeat CPU 0 instructions: 20000003 cycles: 6139053 heartbeat IPC: 3.27539 cumulative IPC: 3.25783 (Simulation time: 0 hr 0 min 26 sec) 

Warmup complete CPU 0 instructions: 25000002 cycles: 7676820 (Simulation time: 0 hr 0 min 32 sec) 

Heartbeat CPU 0 instructions: 30000001 cycles: 27026352 heartbeat IPC: 0.47876 cumulative IPC: 0.258404 (Simulation time: 0 hr 0 min 41 sec) 
Heartbeat CPU 0 instructions: 40000003 cycles: 64406035 heartbeat IPC: 0.267525 cumulative IPC: 0.264414 (Simulation time: 0 hr 0 min 59 sec) 
Heartbeat CPU 0 instructions: 50000000 cycles: 99561770 heartbeat IPC: 0.284449 cumulative IPC: 0.272079 (Simulation time: 0 hr 1 min 18 sec) 
Finished CPU 0 instructions: 25000002 cycles: 91884951 cumulative IPC: 0.272079 (Simulation time: 0 hr 1 min 18 sec) 

ChampSim completed all CPUs

Region of Interest Statistics

CPU 0 cumulative IPC: 0.272079 instructions: 25000002 cycles: 91884951
ITLB TOTAL     ACCESS:    2533912  HIT:    2533912  MISS:          0  HIT %:        100  MISS %:          0   MPKI: 0
ITLB LOAD TRANSLATION ACCESS:    2533912  HIT:    2533912  MISS:          0  HIT %:        100  MISS %:          0   MPKI: 0
ITLB PREFETCH  REQUESTED:          0  ISSUED:          0  USEFUL:          0  USELESS:          0
ITLB USEFUL LOAD PREFETCHES:          0 PREFETCH ISSUED TO LOWER LEVEL:          0  ACCURACY: -nan
ITLB TIMELY PREFETCHES:          0 LATE PREFETCHES: 0 DROPPED PREFETCHES: 0
ITLB PREFETCHES SAME FILL-ORIGIN LEVEL: 0 DIFFERENT FILL-ORIGIN LEVEL: 0
ITLB AVERAGE MISS LATENCY: -nan cycles
ITLB RQ	ACCESS:    2724539	FORWARD:          0	MERGED:     190628	TO_CACHE:    2533911

DTLB TOTAL     ACCESS:    4836789  HIT:    4426184  MISS:     410605  HIT %:    91.5108  MISS %:    8.48921   MPKI: 16.4242
DTLB LOAD TRANSLATION ACCESS:    4836789  HIT:    4426184  MISS:     410605  HIT %:    91.5108  MISS %:    8.48921   MPKI: 16.4242
DTLB PREFETCH  REQUESTED:          0  ISSUED:          0  USEFUL:          0  USELESS:          0
DTLB USEFUL LOAD PREFETCHES:          0 PREFETCH ISSUED TO LOWER LEVEL:          0  ACCURACY: -nan
DTLB TIMELY PREFETCHES:          0 LATE PREFETCHES: 0 DROPPED PREFETCHES: 0
DTLB PREFETCHES SAME FILL-ORIGIN LEVEL: 0 DIFFERENT FILL-ORIGIN LEVEL: 0
DTLB AVERAGE MISS LATENCY: 11.7871 cycles
DTLB RQ	ACCESS:    5492021	FORWARD:          0	MERGED:     642418	TO_CACHE:    4849603

STLB TOTAL     ACCESS:     913992  HIT:     885121  MISS:      28871  HIT %:    96.8412  MISS %:    3.15878   MPKI: 1.15484
STLB LOAD TRANSLATION ACCESS:     410605  HIT:     399267  MISS:      11338  HIT %:    97.2387  MISS %:    2.76129   MPKI: 0.45352
STLB PREFETCH TRANSLATION ACCESS:     503387  HIT:     485854  MISS:      17533  HIT %:     96.517  MISS %:    3.48301   MPKI: 0.70132
STLB PREFETCH  REQUESTED:     821210  ISSUED:     821202  USEFUL:       6870  USELESS:      10515
STLB USEFUL LOAD PREFETCHES:       6870 PREFETCH ISSUED TO LOWER LEVEL:     198619  ACCURACY: 3.45888
STLB TIMELY PREFETCHES:       6870 LATE PREFETCHES: 231 DROPPED PREFETCHES: 180855
STLB PREFETCHES SAME FILL-ORIGIN LEVEL: 198619 DIFFERENT FILL-ORIGIN LEVEL: 0
STLB AVERAGE MISS LATENCY: 64.6432 cycles
STLB RQ	ACCESS:     410605	FORWARD:          0	MERGED:          0	TO_CACHE:     410605
STLB PQ	ACCESS:     821202	FORWARD:          0	MERGED:     135285	TO_CACHE:     685917

STLB Hit, L1D data hit: 0
STLB Hit, L2C data hit: 0
STLB Hit, LLC data hit: 0
STLB Hit, LLC data miss: 0
STLB STLB hints to L2: 0
L1D TOTAL     ACCESS:    5061669  HIT:    3731278  MISS:    1330391  HIT %:    73.7164  MISS %:    26.2836   MPKI: 53.2156
L1D LOAD      ACCESS:    4472338  HIT:    3273629  MISS:    1198709  HIT %:    73.1973  MISS %:    26.8027   MPKI: 47.9484
L1D RFO       ACCESS:     589331  HIT:     457649  MISS:     131682  HIT %:    77.6557  MISS %:    22.3443   MPKI: 5.26728
L1D PREFETCH  REQUESTED:          0  ISSUED:          0  USEFUL:          0  USELESS:          0
L1D USEFUL LOAD PREFETCHES:          0 PREFETCH ISSUED TO LOWER LEVEL:          0  ACCURACY: -nan
L1D TIMELY PREFETCHES:          0 LATE PREFETCHES: 0 DROPPED PREFETCHES: 0
L1D PREFETCHES SAME FILL-ORIGIN LEVEL: 0 DIFFERENT FILL-ORIGIN LEVEL: 0
L1D AVERAGE MISS LATENCY: 97.4439 cycles
L1D RQ	ACCESS:    9065623	FORWARD:          0	MERGED:    4213131	TO_CACHE:    4852466
L1D WQ	ACCESS:     639920	FORWARD:         26	MERGED:        365	TO_CACHE:     639555

L1D UNIQUE REGIONS ACCESSED: 0
L1D REGIONS CONFLICTS: 0
L1D Cross Page Prefetch Requests: 0
L1D Same Page Prefetch Requests: 0
L1D ROI Sum of L1D PQ occupancy: 0
L1D PREFETCHES PUSHED FROM L2C: 0
L1I TOTAL     ACCESS:    2724540  HIT:    2724540  MISS:          0  HIT %:        100  MISS %:          0   MPKI: 0
L1I LOAD      ACCESS:    2724540  HIT:    2724540  MISS:          0  HIT %:        100  MISS %:          0   MPKI: 0
L1I PREFETCH  REQUESTED:          0  ISSUED:          0  USEFUL:          0  USELESS:          0
L1I USEFUL LOAD PREFETCHES:          0 PREFETCH ISSUED TO LOWER LEVEL:          0  ACCURACY: -nan
L1I TIMELY PREFETCHES:          0 LATE PREFETCHES: 0 DROPPED PREFETCHES: 0
L1I PREFETCHES SAME FILL-ORIGIN LEVEL: 0 DIFFERENT FILL-ORIGIN LEVEL: 0
L1I AVERAGE MISS LATENCY: -nan cycles
L1I RQ	ACCESS:    4595965	FORWARD:          0	MERGED:    1871426	TO_CACHE:    2724539

BTB TOTAL     ACCESS:    3484641  HIT:    3484518  MISS:        123  HIT %:    99.9965  MISS %: 0.00352978   MPKI: 0.00492
BTB BRANCH_DIRECT_JUMP	ACCESS:    1031131  HIT:    1031096  MISS:         35
BTB BRANCH_INDIRECT	ACCESS:          0  HIT:          0  MISS:          0
BTB BRANCH_CONDITIONAL	ACCESS:    2451944  HIT:    2451871  MISS:         73
BTB BRANCH_DIRECT_CALL	ACCESS:        783  HIT:        777  MISS:          6
BTB BRANCH_INDIRECT_CALL	ACCESS:          0  HIT:          0  MISS:          0
BTB BRANCH_RETURN	ACCESS:        783  HIT:        774  MISS:          9
BTB BRANCH_OTHER ACCESS:          0  HIT:          0  MISS:          0

L2C TOTAL     ACCESS:    1917614  HIT:     913378  MISS:    1004236  HIT %:     47.631  MISS %:     52.369   MPKI: 40.1694
L2C LOAD      ACCESS:    1198707  HIT:     245757  MISS:     952950  HIT %:    20.5018  MISS %:    79.4982   MPKI: 38.118
L2C DATA LOAD MPKI: 38.118
L2C INSTRUCTION LOAD MPKI: 0
L2C RFO       ACCESS:     131680  HIT:      97744  MISS:      33936  HIT %:    74.2284  MISS %:    25.7716   MPKI: 1.35744
L2C WRITEBACK ACCESS:     373951  HIT:     373765  MISS:        186  HIT %:    99.9503  MISS %:  0.0497391   MPKI: 0.00744
L2C LOAD TRANSLATION ACCESS:      11948  HIT:       7235  MISS:       4713  HIT %:    60.5541  MISS %:    39.4459   MPKI: 0.18852
L2C PREFETCH TRANSLATION ACCESS:     201328  HIT:     188877  MISS:      12451  HIT %:    93.8156  MISS %:    6.18444   MPKI: 0.49804
L2C PREFETCH  REQUESTED:          0  ISSUED:          0  USEFUL:       5861  USELESS:       6577
L2C USEFUL LOAD PREFETCHES:       5861 PREFETCH ISSUED TO LOWER LEVEL:          0  ACCURACY: inf
L2C TIMELY PREFETCHES:       5861 LATE PREFETCHES: 0 DROPPED PREFETCHES: 0
L2C PREFETCHES SAME FILL-ORIGIN LEVEL: 0 DIFFERENT FILL-ORIGIN LEVEL: 0
L2C AVERAGE MISS LATENCY: 114.618 cycles
L2C RQ	ACCESS:    1543667	FORWARD:          0	MERGED:          0	TO_CACHE:    1543663
L2C WQ	ACCESS:     373951	FORWARD:          4	MERGED:          0	TO_CACHE:     373951

L2C Instructions Evicting Data 0
L2C Translations Evicting Data 17010
L2C Data Evicting Data 969923
L2C Instructions Evicting Instructions 0
L2C Translations Evicting Instructions 0
L2C Data Evicting Instructions 0
L2C Instructions Evicting Translations 0
L2C Translations Evicting Translations 154
L2C Data Evicting Translations 16963
L2C Dense regions hint from L2: 0
PSCL5 TOTAL     ACCESS:     206024  HIT:     206024  MISS:          0  HIT %:        100  MISS %:          0   MPKI: 0
PSCL5 LOAD TRANSLATION ACCESS:      11107  HIT:      11107  MISS:          0  HIT %:        100  MISS %:          0   MPKI: 0
PSCL5 PREFETCH TRANSLATION ACCESS:     194917  HIT:     194917  MISS:          0  HIT %:        100  MISS %:          0   MPKI: 0
PSCL5 PREFETCH  REQUESTED:          0  ISSUED:          0  USEFUL:          0  USELESS:          0
PSCL5 USEFUL LOAD PREFETCHES:          0 PREFETCH ISSUED TO LOWER LEVEL:          0  ACCURACY: -nan
PSCL5 TIMELY PREFETCHES:          0 LATE PREFETCHES: 0 DROPPED PREFETCHES: 0
PSCL5 PREFETCHES SAME FILL-ORIGIN LEVEL: 0 DIFFERENT FILL-ORIGIN LEVEL: 0

PSCL4 TOTAL     ACCESS:     199141  HIT:     199141  MISS:          0  HIT %:        100  MISS %:          0   MPKI: 0
PSCL4 LOAD TRANSLATION ACCESS:      11107  HIT:      11107  MISS:          0  HIT %:        100  MISS %:          0   MPKI: 0
PSCL4 PREFETCH TRANSLATION ACCESS:     188034  HIT:     188034  MISS:          0  HIT %:        100  MISS %:          0   MPKI: 0
PSCL4 PREFETCH  REQUESTED:          0  ISSUED:          0  USEFUL:          0  USELESS:          0
PSCL4 USEFUL LOAD PREFETCHES:          0 PREFETCH ISSUED TO LOWER LEVEL:          0  ACCURACY: -nan
PSCL4 TIMELY PREFETCHES:          0 LATE PREFETCHES: 0 DROPPED PREFETCHES: 0
PSCL4 PREFETCHES SAME FILL-ORIGIN LEVEL: 0 DIFFERENT FILL-ORIGIN LEVEL: 0

PSCL3 TOTAL     ACCESS:     199140  HIT:     199140  MISS:          0  HIT %:        100  MISS %:          0   MPKI: 0
PSCL3 LOAD TRANSLATION ACCESS:      11107  HIT:      11107  MISS:          0  HIT %:        100  MISS %:          0   MPKI: 0
PSCL3 PREFETCH TRANSLATION ACCESS:     188033  HIT:     188033  MISS:          0  HIT %:        100  MISS %:          0   MPKI: 0
PSCL3 PREFETCH  REQUESTED:          0  ISSUED:          0  USEFUL:          0  USELESS:          0
PSCL3 USEFUL LOAD PREFETCHES:          0 PREFETCH ISSUED TO LOWER LEVEL:          0  ACCURACY: -nan
PSCL3 TIMELY PREFETCHES:          0 LATE PREFETCHES: 0 DROPPED PREFETCHES: 0
PSCL3 PREFETCHES SAME FILL-ORIGIN LEVEL: 0 DIFFERENT FILL-ORIGIN LEVEL: 0

PSCL2 TOTAL     ACCESS:      71143  HIT:      70051  MISS:       1092  HIT %:    98.4651  MISS %:    1.53494   MPKI: 0.04368
PSCL2 LOAD TRANSLATION ACCESS:      11355  HIT:      10263  MISS:       1092  HIT %:    90.3831  MISS %:    9.61691   MPKI: 0.04368
PSCL2 PREFETCH TRANSLATION ACCESS:      59788  HIT:      59788  MISS:          0  HIT %:        100  MISS %:          0   MPKI: 0
PSCL2 PREFETCH  REQUESTED:          0  ISSUED:          0  USEFUL:          0  USELESS:          0
PSCL2 USEFUL LOAD PREFETCHES:          0 PREFETCH ISSUED TO LOWER LEVEL:          0  ACCURACY: -nan
PSCL2 TIMELY PREFETCHES:          0 LATE PREFETCHES: 0 DROPPED PREFETCHES: 0
PSCL2 PREFETCHES SAME FILL-ORIGIN LEVEL: 0 DIFFERENT FILL-ORIGIN LEVEL: 0

LLC TOTAL     ACCESS:    1224590  HIT:     685079  MISS:     539511  HIT %:    55.9435  MISS %:    44.0565   MPKI: 21.5804
LLC LOAD      ACCESS:     952950  HIT:     445764  MISS:     507186  HIT %:    46.7773  MISS %:    53.2227   MPKI: 20.2874
LLC RFO       ACCESS:      33936  HIT:       9814  MISS:      24122  HIT %:    28.9191  MISS %:    71.0809   MPKI: 0.96488
LLC WRITEBACK ACCESS:     220540  HIT:     219647  MISS:        893  HIT %:    99.5951  MISS %:   0.404915   MPKI: 0.03572
LLC LOAD TRANSLATION ACCESS:       4713  HIT:       2793  MISS:       1920  HIT %:    59.2616  MISS %:    40.7384   MPKI: 0.0768
LLC PREFETCH TRANSLATION ACCESS:      12451  HIT:       7061  MISS:       5390  HIT %:    56.7103  MISS %:    43.2897   MPKI: 0.2156
LLC PREFETCH  REQUESTED:          0  ISSUED:          0  USEFUL:       1134  USELESS:       4260
LLC USEFUL LOAD PREFETCHES:       1134 PREFETCH ISSUED TO LOWER LEVEL:          0  ACCURACY: inf
LLC TIMELY PREFETCHES:       1134 LATE PREFETCHES: 0 DROPPED PREFETCHES: 0
LLC PREFETCHES SAME FILL-ORIGIN LEVEL: 0 DIFFERENT FILL-ORIGIN LEVEL: 0
LLC AVERAGE MISS LATENCY: 161.127 cycles
LLC RQ	ACCESS:    1004050	FORWARD:          0	MERGED:          0	TO_CACHE:    1004050
LLC WQ	ACCESS:     220541	FORWARD:          0	MERGED:          0	TO_CACHE:     220541

LLC Dense regions hint to LLC: 0

RAW hits: 5000
Loads Generated: 9070623
Loads sent to L1D: 9065623
Stores Generated: 639919
Stores sent to L1D: 639920
Major fault: 0 Minor fault: 7709
Allocated PAGES: 7709
CPU 0 STLB arbitrary stride prefetcher final stats

DRAM Statistics
 CHANNEL 0
 RQ ROW_BUFFER_HIT:     113655  ROW_BUFFER_MISS:     424958
 DBUS_CONGESTED:        197
 WQ ROW_BUFFER_HIT:      64946  ROW_BUFFER_MISS:     122202  FULL:          0

 AVG_CONGESTED_CYCLE: 4
 All warmup complete: 2
Channel 0 Bank busy for read cycles: 0
Channel 0 Bank busy for write cycles: 0
Channel 0
Rank 0
0banks busy for read cycles: 18152251
0banks busy for write cycles: 76034
1banks busy for read cycles: 34736779
1banks busy for write cycles: 14087312
2banks busy for read cycles: 10466569
2banks busy for write cycles: 6627797
3banks busy for read cycles: 2710321
3banks busy for write cycles: 2542307
4banks busy for read cycles: 529506
4banks busy for write cycles: 841388
5banks busy for read cycles: 108242
5banks busy for write cycles: 243403
6banks busy for read cycles: 74576
6banks busy for write cycles: 76835
7banks busy for read cycles: 80569
7banks busy for write cycles: 56587
8banks busy for read cycles: 262540
8banks busy for write cycles: 211936

CPU 0 Branch Prediction Accuracy: 94.0604% MPKI: 8.75416 Average ROB Occupancy at Mispredict: 79.5779
Branch types
NOT_BRANCH: 21315003 85.26%
BRANCH_DIRECT_JUMP: 1031131 4.12452%
BRANCH_INDIRECT: 0 0%
BRANCH_CONDITIONAL: 2651938 10.6078%
BRANCH_DIRECT_CALL: 783 0.003132%
BRANCH_INDIRECT_CALL: 0 0%
BRANCH_RETURN: 783 0.003132%
BRANCH_OTHER: 0 0%

DRAM PAGES: 1048576
Allocated PAGES: 7709
