
*** ChampSim Multicore Out-of-Order Simulator ***

Warmup Instructions: 25000000
Simulation Instructions: 25000000
Number of CPUs: 1
LLC sets: 2048
LLC ways: 16
Off-chip DRAM Size: 4096 MB Channels: 1 Width: 64-bit Data Rate: 6400 MT/s
CPU 0 runs ../../../../../traces/436.cactusADM-1804B.champsimtrace.xz
.xz
CPU 0 Bimodal branch predictor
BTB has LRU replacement policy
ITLB has LRU replacement policy
DTLB has LRU replacement policy
STLB has LRU replacement policy
L1I has LRU replacement policy
CPU 0 L1D Next-line prefetcher
L1D has LRU replacement policy
L2C has LRU replacement policy
LLC has LRU replacement policy
Heartbeat CPU 0 instructions: 10000000 cycles: 3899695 heartbeat IPC: 2.5643 cumulative IPC: 2.5643 (Simulation time: 0 hr 0 min 22 sec) 
Heartbeat CPU 0 instructions: 20000002 cycles: 7958617 heartbeat IPC: 2.46371 cumulative IPC: 2.513 (Simulation time: 0 hr 0 min 43 sec) 

Warmup complete CPU 0 instructions: 25000003 cycles: 9907999 (Simulation time: 0 hr 0 min 54 sec) 

Heartbeat CPU 0 instructions: 30000000 cycles: 14873457 heartbeat IPC: 1.44616 cumulative IPC: 1.00696 (Simulation time: 0 hr 1 min 9 sec) 
Heartbeat CPU 0 instructions: 40000003 cycles: 24799495 heartbeat IPC: 1.00745 cumulative IPC: 1.00729 (Simulation time: 0 hr 1 min 38 sec) 
Heartbeat CPU 0 instructions: 50000001 cycles: 36598784 heartbeat IPC: 0.847509 cumulative IPC: 0.936653 (Simulation time: 0 hr 2 min 8 sec) 
Finished CPU 0 instructions: 25000003 cycles: 26690788 cumulative IPC: 0.936653 (Simulation time: 0 hr 2 min 8 sec) 

ChampSim completed all CPUs

Region of Interest Statistics

CPU 0 cumulative IPC: 0.936653 instructions: 25000003 cycles: 26690788
ITLB TOTAL     ACCESS:    4355478  HIT:    4355478  MISS:          0  HIT %:        100  MISS %:          0   MPKI: 0
ITLB LOAD TRANSLATION ACCESS:    4355478  HIT:    4355478  MISS:          0  HIT %:        100  MISS %:          0   MPKI: 0
ITLB PREFETCH  REQUESTED:          0  ISSUED:          0  USEFUL:          0  USELESS:          0
ITLB USEFUL LOAD PREFETCHES:          0 PREFETCH ISSUED TO LOWER LEVEL:          0  ACCURACY: -nan
ITLB TIMELY PREFETCHES:          0 LATE PREFETCHES: 0 DROPPED PREFETCHES: 0
ITLB PREFETCHES SAME FILL-ORIGIN LEVEL: 0 DIFFERENT FILL-ORIGIN LEVEL: 0
ITLB AVERAGE MISS LATENCY: -nan cycles
ITLB RQ	ACCESS:    4937183	FORWARD:          0	MERGED:     581706	TO_CACHE:    4355477

DTLB TOTAL     ACCESS:    7255671  HIT:    6639854  MISS:     615817  HIT %:    91.5126  MISS %:    8.48739   MPKI: 24.6327
DTLB LOAD TRANSLATION ACCESS:    7255671  HIT:    6639854  MISS:     615817  HIT %:    91.5126  MISS %:    8.48739   MPKI: 24.6327
DTLB PREFETCH  REQUESTED:          0  ISSUED:          0  USEFUL:          0  USELESS:          0
DTLB USEFUL LOAD PREFETCHES:          0 PREFETCH ISSUED TO LOWER LEVEL:          0  ACCURACY: -nan
DTLB TIMELY PREFETCHES:          0 LATE PREFETCHES: 0 DROPPED PREFETCHES: 0
DTLB PREFETCHES SAME FILL-ORIGIN LEVEL: 0 DIFFERENT FILL-ORIGIN LEVEL: 0
DTLB AVERAGE MISS LATENCY: 27.386 cycles
DTLB RQ	ACCESS:   11777560	FORWARD:          0	MERGED:    4513682	TO_CACHE:    7263878

STLB TOTAL     ACCESS:    4101819  HIT:    3800904  MISS:     300915  HIT %:    92.6639  MISS %:    7.33614   MPKI: 12.0366
STLB LOAD TRANSLATION ACCESS:     615817  HIT:     379731  MISS:     236086  HIT %:     61.663  MISS %:     38.337   MPKI: 9.44344
STLB PREFETCH TRANSLATION ACCESS:     272941  HIT:     208112  MISS:      64829  HIT %:     76.248  MISS %:     23.752   MPKI: 2.59316
STLB TRANSLATION FROM L1D PREFETCHER ACCESS:    3213061  HIT:    3213061  MISS:          0  HIT %:        100  MISS %:          0   MPKI: 0
STLB PREFETCH  REQUESTED:    1231634  ISSUED:     835130  USEFUL:      48696  USELESS:      16091
STLB USEFUL LOAD PREFETCHES:      48696 PREFETCH ISSUED TO LOWER LEVEL:     557251  ACCURACY: 8.73861
STLB TIMELY PREFETCHES:      48696 LATE PREFETCHES: 33969 DROPPED PREFETCHES: 458453
STLB PREFETCHES SAME FILL-ORIGIN LEVEL: 557251 DIFFERENT FILL-ORIGIN LEVEL: 0
STLB AVERAGE MISS LATENCY: 38.8002 cycles
STLB RQ	ACCESS:   18019837	FORWARD:          0	MERGED:   14190959	TO_CACHE:    3828878
STLB PQ	ACCESS:     835130	FORWARD:          0	MERGED:      67073	TO_CACHE:     768057

STLB Hit, L1D data hit: 0
STLB Hit, L2C data hit: 0
STLB Hit, LLC data hit: 0
STLB Hit, LLC data miss: 0
STLB STLB hints to L2: 0
L1D TOTAL     ACCESS:   29128386  HIT:   28067217  MISS:    1061169  HIT %:    96.3569  MISS %:    3.64308   MPKI: 42.4468
L1D LOAD      ACCESS:    7858870  HIT:    7723005  MISS:     135865  HIT %:    98.2712  MISS %:    1.72881   MPKI: 5.4346
L1D RFO       ACCESS:    3882902  HIT:    3825544  MISS:      57358  HIT %:    98.5228  MISS %:    1.47719   MPKI: 2.29432
L1D PREFETCH  ACCESS:   17386614  HIT:   16518668  MISS:     867946  HIT %:     95.008  MISS %:    4.99204   MPKI: 34.7178
AGUS PREFETCH L1 MISS: 0
L1D PREFETCH  REQUESTED:   55847818  ISSUED:   40520859  USEFUL:     133422  USELESS:     734465
L1D USEFUL LOAD PREFETCHES:     133422 PREFETCH ISSUED TO LOWER LEVEL:     868161  ACCURACY: 15.3683
L1D TIMELY PREFETCHES:     133422 LATE PREFETCHES: 213 DROPPED PREFETCHES: 0
L1D PREFETCHES SAME FILL-ORIGIN LEVEL: 868161 DIFFERENT FILL-ORIGIN LEVEL: 0
L1D AVERAGE MISS LATENCY: 39.6942 cycles
L1D RQ	ACCESS:   12764990	FORWARD:          0	MERGED:    4837191	TO_CACHE:    7860603
L1D WQ	ACCESS:    4203877	FORWARD:     139021	MERGED:     286920	TO_CACHE:    3916957
L1D PQ	ACCESS:   23116839	FORWARD:          0	MERGED:    5640994	TO_CACHE:   17404020

L1D UNIQUE REGIONS ACCESSED: 0
L1D REGIONS CONFLICTS: 0
L1D Cross Page Prefetch Requests: 0
L1D Same Page Prefetch Requests: 40242525
L1D ROI Sum of L1D PQ occupancy: 242504789
L1D PREFETCHES PUSHED FROM L2C: 0
L1I TOTAL     ACCESS:    4937184  HIT:    4937184  MISS:          0  HIT %:        100  MISS %:          0   MPKI: 0
L1I LOAD      ACCESS:    4937184  HIT:    4937184  MISS:          0  HIT %:        100  MISS %:          0   MPKI: 0
L1I PREFETCH  REQUESTED:          0  ISSUED:          0  USEFUL:          0  USELESS:          0
L1I USEFUL LOAD PREFETCHES:          0 PREFETCH ISSUED TO LOWER LEVEL:          0  ACCURACY: -nan
L1I TIMELY PREFETCHES:          0 LATE PREFETCHES: 0 DROPPED PREFETCHES: 0
L1I PREFETCHES SAME FILL-ORIGIN LEVEL: 0 DIFFERENT FILL-ORIGIN LEVEL: 0
L1I AVERAGE MISS LATENCY: -nan cycles
L1I RQ	ACCESS:    7186606	FORWARD:          0	MERGED:    2249423	TO_CACHE:    4937183

BTB TOTAL     ACCESS:      30391  HIT:      30384  MISS:          7  HIT %:     99.977  MISS %:  0.0230331   MPKI: 0.00028
BTB BRANCH_DIRECT_JUMP	ACCESS:        252  HIT:        250  MISS:          2
BTB BRANCH_INDIRECT	ACCESS:          0  HIT:          0  MISS:          0
BTB BRANCH_CONDITIONAL	ACCESS:      30139  HIT:      30134  MISS:          5
BTB BRANCH_DIRECT_CALL	ACCESS:          0  HIT:          0  MISS:          0
BTB BRANCH_INDIRECT_CALL	ACCESS:          0  HIT:          0  MISS:          0
BTB BRANCH_RETURN	ACCESS:          0  HIT:          0  MISS:          0
BTB BRANCH_OTHER ACCESS:          0  HIT:          0  MISS:          0

L2C TOTAL     ACCESS:    2173331  HIT:    2047766  MISS:     125565  HIT %:    94.2225  MISS %:    5.77754   MPKI: 5.0226
L2C LOAD      ACCESS:     135526  HIT:     134033  MISS:       1493  HIT %:    98.8984  MISS %:    1.10163   MPKI: 0.05972
L2C DATA LOAD MPKI: 0.05972
L2C INSTRUCTION LOAD MPKI: 0
L2C RFO       ACCESS:      57321  HIT:      22030  MISS:      35291  HIT %:    38.4327  MISS %:    61.5673   MPKI: 1.41164
L2C PREFETCH  ACCESS:     868133  HIT:     779957  MISS:      88176  HIT %:     89.843  MISS %:     10.157   MPKI: 3.52704
AGUS PREFETCH L1 MISS: 0
L2C DATA PREFETCH MPKI: 3.52704
L2C INSTRUCTION PREFETCH MPKI: 0
L2C WRITEBACK ACCESS:      59464  HIT:      59405  MISS:         59  HIT %:    99.9008  MISS %:  0.0992197   MPKI: 0.00236
L2C LOAD TRANSLATION ACCESS:     389805  HIT:     389716  MISS:         89  HIT %:    99.9772  MISS %:  0.0228319   MPKI: 0.00356
L2C PREFETCH TRANSLATION ACCESS:     663082  HIT:     662625  MISS:        457  HIT %:    99.9311  MISS %:  0.0689206   MPKI: 0.01828
L2C PREFETCH  REQUESTED:          0  ISSUED:          0  USEFUL:      32240  USELESS:      57447
L2C USEFUL LOAD PREFETCHES:      32240 PREFETCH ISSUED TO LOWER LEVEL:      88179  ACCURACY: 36.562
L2C TIMELY PREFETCHES:      32240 LATE PREFETCHES: 0 DROPPED PREFETCHES: 0
L2C PREFETCHES SAME FILL-ORIGIN LEVEL: 0 DIFFERENT FILL-ORIGIN LEVEL: 0
L2C AVERAGE MISS LATENCY: 231.255 cycles
L2C RQ	ACCESS:    1245897	FORWARD:          0	MERGED:          0	TO_CACHE:    1245734
L2C WQ	ACCESS:      59464	FORWARD:        188	MERGED:          0	TO_CACHE:      59464
L2C PQ	ACCESS:     868161	FORWARD:          0	MERGED:          0	TO_CACHE:     868136

L2C Instructions Evicting Data 0
L2C Translations Evicting Data 545
L2C Data Evicting Data 124390
L2C Instructions Evicting Instructions 0
L2C Translations Evicting Instructions 0
L2C Data Evicting Instructions 0
L2C Instructions Evicting Translations 0
L2C Translations Evicting Translations 1
L2C Data Evicting Translations 570
L2C Dense regions hint from L2: 0
PSCL5 TOTAL     ACCESS:     705103  HIT:     705103  MISS:          0  HIT %:        100  MISS %:          0   MPKI: 0
PSCL5 LOAD TRANSLATION ACCESS:     202167  HIT:     202167  MISS:          0  HIT %:        100  MISS %:          0   MPKI: 0
PSCL5 PREFETCH TRANSLATION ACCESS:     502936  HIT:     502936  MISS:          0  HIT %:        100  MISS %:          0   MPKI: 0
PSCL5 PREFETCH  REQUESTED:          0  ISSUED:          0  USEFUL:          0  USELESS:          0
PSCL5 USEFUL LOAD PREFETCHES:          0 PREFETCH ISSUED TO LOWER LEVEL:          0  ACCURACY: -nan
PSCL5 TIMELY PREFETCHES:          0 LATE PREFETCHES: 0 DROPPED PREFETCHES: 0
PSCL5 PREFETCHES SAME FILL-ORIGIN LEVEL: 0 DIFFERENT FILL-ORIGIN LEVEL: 0

PSCL4 TOTAL     ACCESS:     635101  HIT:     635101  MISS:          0  HIT %:        100  MISS %:          0   MPKI: 0
PSCL4 LOAD TRANSLATION ACCESS:     202167  HIT:     202167  MISS:          0  HIT %:        100  MISS %:          0   MPKI: 0
PSCL4 PREFETCH TRANSLATION ACCESS:     432934  HIT:     432934  MISS:          0  HIT %:        100  MISS %:          0   MPKI: 0
PSCL4 PREFETCH  REQUESTED:          0  ISSUED:          0  USEFUL:          0  USELESS:          0
PSCL4 USEFUL LOAD PREFETCHES:          0 PREFETCH ISSUED TO LOWER LEVEL:          0  ACCURACY: -nan
PSCL4 TIMELY PREFETCHES:          0 LATE PREFETCHES: 0 DROPPED PREFETCHES: 0
PSCL4 PREFETCHES SAME FILL-ORIGIN LEVEL: 0 DIFFERENT FILL-ORIGIN LEVEL: 0

PSCL3 TOTAL     ACCESS:     634644  HIT:     634644  MISS:          0  HIT %:        100  MISS %:          0   MPKI: 0
PSCL3 LOAD TRANSLATION ACCESS:     202167  HIT:     202167  MISS:          0  HIT %:        100  MISS %:          0   MPKI: 0
PSCL3 PREFETCH TRANSLATION ACCESS:     432477  HIT:     432477  MISS:          0  HIT %:        100  MISS %:          0   MPKI: 0
PSCL3 PREFETCH  REQUESTED:          0  ISSUED:          0  USEFUL:          0  USELESS:          0
PSCL3 USEFUL LOAD PREFETCHES:          0 PREFETCH ISSUED TO LOWER LEVEL:          0  ACCURACY: -nan
PSCL3 TIMELY PREFETCHES:          0 LATE PREFETCHES: 0 DROPPED PREFETCHES: 0
PSCL3 PREFETCHES SAME FILL-ORIGIN LEVEL: 0 DIFFERENT FILL-ORIGIN LEVEL: 0

PSCL2 TOTAL     ACCESS:     306967  HIT:      32882  MISS:     274085  HIT %:    10.7119  MISS %:    89.2881   MPKI: 10.9634
PSCL2 LOAD TRANSLATION ACCESS:     288614  HIT:      14529  MISS:     274085  HIT %:    5.03406  MISS %:    94.9659   MPKI: 10.9634
PSCL2 PREFETCH TRANSLATION ACCESS:      18353  HIT:      18353  MISS:          0  HIT %:        100  MISS %:          0   MPKI: 0
PSCL2 PREFETCH  REQUESTED:          0  ISSUED:          0  USEFUL:          0  USELESS:          0
PSCL2 USEFUL LOAD PREFETCHES:          0 PREFETCH ISSUED TO LOWER LEVEL:          0  ACCURACY: -nan
PSCL2 TIMELY PREFETCHES:          0 LATE PREFETCHES: 0 DROPPED PREFETCHES: 0
PSCL2 PREFETCHES SAME FILL-ORIGIN LEVEL: 0 DIFFERENT FILL-ORIGIN LEVEL: 0

LLC TOTAL     ACCESS:     160870  HIT:      35354  MISS:     125516  HIT %:    21.9768  MISS %:    78.0232   MPKI: 5.02064
LLC LOAD      ACCESS:       1493  HIT:          0  MISS:       1493  HIT %:          0  MISS %:        100   MPKI: 0.05972
LLC RFO       ACCESS:      35291  HIT:          0  MISS:      35291  HIT %:          0  MISS %:        100   MPKI: 1.41164
LLC PREFETCH  ACCESS:      88176  HIT:          8  MISS:      88168  HIT %: 0.00907276  MISS %:    99.9909   MPKI: 3.52672
AGUS PREFETCH L1 MISS: 0
LLC WRITEBACK ACCESS:      35364  HIT:      35317  MISS:         47  HIT %:    99.8671  MISS %:   0.132904   MPKI: 0.00188
LLC LOAD TRANSLATION ACCESS:         89  HIT:          1  MISS:         88  HIT %:     1.1236  MISS %:    98.8764   MPKI: 0.00352
LLC PREFETCH TRANSLATION ACCESS:        457  HIT:         28  MISS:        429  HIT %:    6.12691  MISS %:    93.8731   MPKI: 0.01716
LLC PREFETCH  REQUESTED:          0  ISSUED:          0  USEFUL:         23  USELESS:      86469
LLC USEFUL LOAD PREFETCHES:         23 PREFETCH ISSUED TO LOWER LEVEL:      88171  ACCURACY: 0.0260857
LLC TIMELY PREFETCHES:         23 LATE PREFETCHES: 0 DROPPED PREFETCHES: 0
LLC PREFETCHES SAME FILL-ORIGIN LEVEL: 0 DIFFERENT FILL-ORIGIN LEVEL: 0
LLC AVERAGE MISS LATENCY: 202.85 cycles
LLC RQ	ACCESS:      37330	FORWARD:          0	MERGED:          0	TO_CACHE:      37330
LLC WQ	ACCESS:      35364	FORWARD:          0	MERGED:          0	TO_CACHE:      35364
LLC PQ	ACCESS:      88179	FORWARD:          0	MERGED:          0	TO_CACHE:      88179

LLC Dense regions hint to LLC: 0

RAW hits: 1750389
Loads Generated: 14515383
Loads sent to L1D: 12764990
Stores Generated: 4203877
Stores sent to L1D: 4203877
Major fault: 0 Minor fault: 2808
Allocated PAGES: 2808
CPU 0 L1D nextline prefetcher final stats
Degree: 5
CPU 0 STLB arbitrary stride prefetcher final stats

DRAM Statistics
 CHANNEL 0
 RQ ROW_BUFFER_HIT:      30708  ROW_BUFFER_MISS:      94761
 DBUS_CONGESTED:         62
 WQ ROW_BUFFER_HIT:       4811  ROW_BUFFER_MISS:      32615  FULL:          0

 AVG_CONGESTED_CYCLE: 4
 All warmup complete: 2
Channel 0 Bank busy for read cycles: 0
Channel 0 Bank busy for write cycles: 0
Channel 0
Rank 0
0banks busy for read cycles: 15292777
0banks busy for write cycles: 12351
1banks busy for read cycles: 5072736
1banks busy for write cycles: 1547265
2banks busy for read cycles: 1592306
2banks busy for write cycles: 550066
3banks busy for read cycles: 672251
3banks busy for write cycles: 268493
4banks busy for read cycles: 466019
4banks busy for write cycles: 178080
5banks busy for read cycles: 333140
5banks busy for write cycles: 112438
6banks busy for read cycles: 218982
6banks busy for write cycles: 76978
7banks busy for read cycles: 92404
7banks busy for write cycles: 52055
8banks busy for read cycles: 11199
8banks busy for write cycles: 141249

CPU 0 Branch Prediction Accuracy: 99.1679% MPKI: 0.01024 Average ROB Occupancy at Mispredict: 348.742
Branch types
NOT_BRANCH: 24969238 99.8769%
BRANCH_DIRECT_JUMP: 252 0.001008%
BRANCH_INDIRECT: 0 0%
BRANCH_CONDITIONAL: 30513 0.122052%
BRANCH_DIRECT_CALL: 0 0%
BRANCH_INDIRECT_CALL: 0 0%
BRANCH_RETURN: 0 0%
BRANCH_OTHER: 0 0%

DRAM PAGES: 1048576
Allocated PAGES: 2808
