
*** ChampSim Multicore Out-of-Order Simulator ***

Warmup Instructions: 25000000
Simulation Instructions: 25000000
Number of CPUs: 1
LLC sets: 2048
LLC ways: 16
Off-chip DRAM Size: 4096 MB Channels: 1 Width: 64-bit Data Rate: 6400 MT/s
CPU 0 runs ../../../../../traces/436.cactusADM-1804B.champsimtrace.xz
.xz
CPU 0 Bimodal branch predictor
BTB has LRU replacement policy
ITLB has LRU replacement policy
DTLB has LRU replacement policy
STLB has LRU replacement policy
L1I has LRU replacement policy
L1D has LRU replacement policy
L2C has LRU replacement policy
LLC has LRU replacement policy
Heartbeat CPU 0 instructions: 10000000 cycles: 3895057 heartbeat IPC: 2.56736 cumulative IPC: 2.56736 (Simulation time: 0 hr 0 min 19 sec) 
Heartbeat CPU 0 instructions: 20000002 cycles: 7967165 heartbeat IPC: 2.45573 cumulative IPC: 2.5103 (Simulation time: 0 hr 0 min 37 sec) 

Warmup complete CPU 0 instructions: 25000003 cycles: 9915652 (Simulation time: 0 hr 0 min 46 sec) 

Heartbeat CPU 0 instructions: 30000000 cycles: 16578221 heartbeat IPC: 1.1613 cumulative IPC: 0.750461 (Simulation time: 0 hr 0 min 59 sec) 
Heartbeat CPU 0 instructions: 40000003 cycles: 29764826 heartbeat IPC: 0.758346 cumulative IPC: 0.755699 (Simulation time: 0 hr 1 min 25 sec) 
Heartbeat CPU 0 instructions: 50000001 cycles: 46115504 heartbeat IPC: 0.611595 cumulative IPC: 0.690611 (Simulation time: 0 hr 1 min 53 sec) 
Finished CPU 0 instructions: 25000003 cycles: 36199855 cumulative IPC: 0.690611 (Simulation time: 0 hr 1 min 53 sec) 

ChampSim completed all CPUs

Region of Interest Statistics

CPU 0 cumulative IPC: 0.690611 instructions: 25000003 cycles: 36199855
ITLB TOTAL     ACCESS:    4435855  HIT:    4435855  MISS:          0  HIT %:        100  MISS %:          0   MPKI: 0
ITLB LOAD TRANSLATION ACCESS:    4435855  HIT:    4435855  MISS:          0  HIT %:        100  MISS %:          0   MPKI: 0
ITLB PREFETCH  REQUESTED:          0  ISSUED:          0  USEFUL:          0  USELESS:          0
ITLB USEFUL LOAD PREFETCHES:          0 PREFETCH ISSUED TO LOWER LEVEL:          0  ACCURACY: -nan
ITLB TIMELY PREFETCHES:          0 LATE PREFETCHES: 0 DROPPED PREFETCHES: 0
ITLB PREFETCHES SAME FILL-ORIGIN LEVEL: 0 DIFFERENT FILL-ORIGIN LEVEL: 0
ITLB AVERAGE MISS LATENCY: -nan cycles
ITLB RQ	ACCESS:    5016833	FORWARD:          0	MERGED:     580979	TO_CACHE:    4435854

DTLB TOTAL     ACCESS:    7292269  HIT:    6677198  MISS:     615071  HIT %:    91.5654  MISS %:    8.43456   MPKI: 24.6028
DTLB LOAD TRANSLATION ACCESS:    7292269  HIT:    6677198  MISS:     615071  HIT %:    91.5654  MISS %:    8.43456   MPKI: 24.6028
DTLB PREFETCH  REQUESTED:          0  ISSUED:          0  USEFUL:          0  USELESS:          0
DTLB USEFUL LOAD PREFETCHES:          0 PREFETCH ISSUED TO LOWER LEVEL:          0  ACCURACY: -nan
DTLB TIMELY PREFETCHES:          0 LATE PREFETCHES: 0 DROPPED PREFETCHES: 0
DTLB PREFETCHES SAME FILL-ORIGIN LEVEL: 0 DIFFERENT FILL-ORIGIN LEVEL: 0
DTLB AVERAGE MISS LATENCY: 33.5302 cycles
DTLB RQ	ACCESS:   11829005	FORWARD:          0	MERGED:    4528876	TO_CACHE:    7300129

STLB TOTAL     ACCESS:    1424053  HIT:     771861  MISS:     652192  HIT %:    54.2017  MISS %:    45.7983   MPKI: 26.0877
STLB LOAD TRANSLATION ACCESS:     615071  HIT:     297222  MISS:     317849  HIT %:    48.3232  MISS %:    51.6768   MPKI: 12.714
STLB PREFETCH TRANSLATION ACCESS:     808982  HIT:     474639  MISS:     334343  HIT %:    58.6711  MISS %:    41.3289   MPKI: 13.3737
STLB PREFETCH  REQUESTED:    2460284  ISSUED:    1280959  USEFUL:        307  USELESS:     333708
STLB USEFUL LOAD PREFETCHES:        307 PREFETCH ISSUED TO LOWER LEVEL:     773517  ACCURACY: 0.0396888
STLB TIMELY PREFETCHES:        307 LATE PREFETCHES: 11 DROPPED PREFETCHES: 439163
STLB PREFETCHES SAME FILL-ORIGIN LEVEL: 773517 DIFFERENT FILL-ORIGIN LEVEL: 0
STLB AVERAGE MISS LATENCY: 43.5842 cycles
STLB RQ	ACCESS:     615071	FORWARD:          0	MERGED:          0	TO_CACHE:     615071
STLB PQ	ACCESS:    1280959	FORWARD:          0	MERGED:      32618	TO_CACHE:    1248341

STLB Hit, L1D data hit: 0
STLB Hit, L2C data hit: 0
STLB Hit, LLC data hit: 0
STLB Hit, LLC data miss: 0
STLB STLB hints to L2: 0
L1D TOTAL     ACCESS:   11810811  HIT:   11615425  MISS:     195386  HIT %:    98.3457  MISS %:     1.6543   MPKI: 7.81544
L1D LOAD      ACCESS:    7894413  HIT:    7734367  MISS:     160046  HIT %:    97.9727  MISS %:    2.02733   MPKI: 6.40184
L1D RFO       ACCESS:    3916398  HIT:    3881058  MISS:      35340  HIT %:    99.0976  MISS %:    0.90236   MPKI: 1.4136
L1D PREFETCH  REQUESTED:          0  ISSUED:          0  USEFUL:          0  USELESS:          0
L1D USEFUL LOAD PREFETCHES:          0 PREFETCH ISSUED TO LOWER LEVEL:          0  ACCURACY: -nan
L1D TIMELY PREFETCHES:          0 LATE PREFETCHES: 0 DROPPED PREFETCHES: 0
L1D PREFETCHES SAME FILL-ORIGIN LEVEL: 0 DIFFERENT FILL-ORIGIN LEVEL: 0
L1D AVERAGE MISS LATENCY: 141.587 cycles
L1D RQ	ACCESS:   12776746	FORWARD:          0	MERGED:    4812319	TO_CACHE:    7895291
L1D WQ	ACCESS:    4203877	FORWARD:      69136	MERGED:     270163	TO_CACHE:    3933714

L1D UNIQUE REGIONS ACCESSED: 0
L1D REGIONS CONFLICTS: 0
L1D Cross Page Prefetch Requests: 0
L1D Same Page Prefetch Requests: 0
L1D ROI Sum of L1D PQ occupancy: 0
L1D PREFETCHES PUSHED FROM L2C: 0
L1I TOTAL     ACCESS:    5016834  HIT:    5016834  MISS:          0  HIT %:        100  MISS %:          0   MPKI: 0
L1I LOAD      ACCESS:    5016834  HIT:    5016834  MISS:          0  HIT %:        100  MISS %:          0   MPKI: 0
L1I PREFETCH  REQUESTED:          0  ISSUED:          0  USEFUL:          0  USELESS:          0
L1I USEFUL LOAD PREFETCHES:          0 PREFETCH ISSUED TO LOWER LEVEL:          0  ACCURACY: -nan
L1I TIMELY PREFETCHES:          0 LATE PREFETCHES: 0 DROPPED PREFETCHES: 0
L1I PREFETCHES SAME FILL-ORIGIN LEVEL: 0 DIFFERENT FILL-ORIGIN LEVEL: 0
L1I AVERAGE MISS LATENCY: -nan cycles
L1I RQ	ACCESS:    7249833	FORWARD:          0	MERGED:    2233000	TO_CACHE:    5016833

BTB TOTAL     ACCESS:      30391  HIT:      30384  MISS:          7  HIT %:     99.977  MISS %:  0.0230331   MPKI: 0.00028
BTB BRANCH_DIRECT_JUMP	ACCESS:        252  HIT:        250  MISS:          2
BTB BRANCH_INDIRECT	ACCESS:          0  HIT:          0  MISS:          0
BTB BRANCH_CONDITIONAL	ACCESS:      30139  HIT:      30134  MISS:          5
BTB BRANCH_DIRECT_CALL	ACCESS:          0  HIT:          0  MISS:          0
BTB BRANCH_INDIRECT_CALL	ACCESS:          0  HIT:          0  MISS:          0
BTB BRANCH_RETURN	ACCESS:          0  HIT:          0  MISS:          0
BTB BRANCH_OTHER ACCESS:          0  HIT:          0  MISS:          0

L2C TOTAL     ACCESS:    1749610  HIT:    1624549  MISS:     125061  HIT %:    92.8521  MISS %:    7.14794   MPKI: 5.00244
L2C LOAD      ACCESS:     160046  HIT:      70644  MISS:      89402  HIT %:    44.1398  MISS %:    55.8602   MPKI: 3.57608
L2C DATA LOAD MPKI: 3.57608
L2C INSTRUCTION LOAD MPKI: 0
L2C RFO       ACCESS:      35340  HIT:          2  MISS:      35338  HIT %: 0.00565931  MISS %:    99.9943   MPKI: 1.41352
L2C WRITEBACK ACCESS:      37000  HIT:      36962  MISS:         38  HIT %:    99.8973  MISS %:   0.102703   MPKI: 0.00152
L2C LOAD TRANSLATION ACCESS:     623961  HIT:     623889  MISS:         72  HIT %:    99.9885  MISS %:  0.0115392   MPKI: 0.00288
L2C PREFETCH TRANSLATION ACCESS:     893263  HIT:     893052  MISS:        211  HIT %:    99.9764  MISS %:  0.0236213   MPKI: 0.00844
L2C PREFETCH  REQUESTED:          0  ISSUED:          0  USEFUL:        207  USELESS:          3
L2C USEFUL LOAD PREFETCHES:        207 PREFETCH ISSUED TO LOWER LEVEL:          0  ACCURACY: inf
L2C TIMELY PREFETCHES:        207 LATE PREFETCHES: 0 DROPPED PREFETCHES: 0
L2C PREFETCHES SAME FILL-ORIGIN LEVEL: 0 DIFFERENT FILL-ORIGIN LEVEL: 0
L2C AVERAGE MISS LATENCY: 202.266 cycles
L2C RQ	ACCESS:    1712611	FORWARD:          0	MERGED:          0	TO_CACHE:    1712611
L2C WQ	ACCESS:      37000	FORWARD:          0	MERGED:          0	TO_CACHE:      37000

L2C Instructions Evicting Data 0
L2C Translations Evicting Data 283
L2C Data Evicting Data 124459
L2C Instructions Evicting Instructions 0
L2C Translations Evicting Instructions 0
L2C Data Evicting Instructions 0
L2C Instructions Evicting Translations 0
L2C Translations Evicting Translations 0
L2C Data Evicting Translations 281
L2C Dense regions hint from L2: 0
PSCL5 TOTAL     ACCESS:    1091364  HIT:    1091364  MISS:          0  HIT %:        100  MISS %:          0   MPKI: 0
PSCL5 LOAD TRANSLATION ACCESS:     317847  HIT:     317847  MISS:          0  HIT %:        100  MISS %:          0   MPKI: 0
PSCL5 PREFETCH TRANSLATION ACCESS:     773517  HIT:     773517  MISS:          0  HIT %:        100  MISS %:          0   MPKI: 0
PSCL5 PREFETCH  REQUESTED:          0  ISSUED:          0  USEFUL:          0  USELESS:          0
PSCL5 USEFUL LOAD PREFETCHES:          0 PREFETCH ISSUED TO LOWER LEVEL:          0  ACCURACY: -nan
PSCL5 TIMELY PREFETCHES:          0 LATE PREFETCHES: 0 DROPPED PREFETCHES: 0
PSCL5 PREFETCHES SAME FILL-ORIGIN LEVEL: 0 DIFFERENT FILL-ORIGIN LEVEL: 0

PSCL4 TOTAL     ACCESS:    1091364  HIT:    1091364  MISS:          0  HIT %:        100  MISS %:          0   MPKI: 0
PSCL4 LOAD TRANSLATION ACCESS:     317847  HIT:     317847  MISS:          0  HIT %:        100  MISS %:          0   MPKI: 0
PSCL4 PREFETCH TRANSLATION ACCESS:     773517  HIT:     773517  MISS:          0  HIT %:        100  MISS %:          0   MPKI: 0
PSCL4 PREFETCH  REQUESTED:          0  ISSUED:          0  USEFUL:          0  USELESS:          0
PSCL4 USEFUL LOAD PREFETCHES:          0 PREFETCH ISSUED TO LOWER LEVEL:          0  ACCURACY: -nan
PSCL4 TIMELY PREFETCHES:          0 LATE PREFETCHES: 0 DROPPED PREFETCHES: 0
PSCL4 PREFETCHES SAME FILL-ORIGIN LEVEL: 0 DIFFERENT FILL-ORIGIN LEVEL: 0

PSCL3 TOTAL     ACCESS:    1091364  HIT:    1091364  MISS:          0  HIT %:        100  MISS %:          0   MPKI: 0
PSCL3 LOAD TRANSLATION ACCESS:     317847  HIT:     317847  MISS:          0  HIT %:        100  MISS %:          0   MPKI: 0
PSCL3 PREFETCH TRANSLATION ACCESS:     773517  HIT:     773517  MISS:          0  HIT %:        100  MISS %:          0   MPKI: 0
PSCL3 PREFETCH  REQUESTED:          0  ISSUED:          0  USEFUL:          0  USELESS:          0
PSCL3 USEFUL LOAD PREFETCHES:          0 PREFETCH ISSUED TO LOWER LEVEL:          0  ACCURACY: -nan
PSCL3 TIMELY PREFETCHES:          0 LATE PREFETCHES: 0 DROPPED PREFETCHES: 0
PSCL3 PREFETCHES SAME FILL-ORIGIN LEVEL: 0 DIFFERENT FILL-ORIGIN LEVEL: 0

PSCL2 TOTAL     ACCESS:    1035456  HIT:     665504  MISS:     369952  HIT %:    64.2716  MISS %:    35.7284   MPKI: 14.7981
PSCL2 LOAD TRANSLATION ACCESS:     381685  HIT:      11733  MISS:     369952  HIT %:      3.074  MISS %:     96.926   MPKI: 14.7981
PSCL2 PREFETCH TRANSLATION ACCESS:     653771  HIT:     653771  MISS:          0  HIT %:        100  MISS %:          0   MPKI: 0
PSCL2 PREFETCH  REQUESTED:          0  ISSUED:          0  USEFUL:          0  USELESS:          0
PSCL2 USEFUL LOAD PREFETCHES:          0 PREFETCH ISSUED TO LOWER LEVEL:          0  ACCURACY: -nan
PSCL2 TIMELY PREFETCHES:          0 LATE PREFETCHES: 0 DROPPED PREFETCHES: 0
PSCL2 PREFETCHES SAME FILL-ORIGIN LEVEL: 0 DIFFERENT FILL-ORIGIN LEVEL: 0

LLC TOTAL     ACCESS:     160365  HIT:      35297  MISS:     125068  HIT %:    22.0104  MISS %:    77.9896   MPKI: 5.00272
LLC LOAD      ACCESS:      89402  HIT:          0  MISS:      89402  HIT %:          0  MISS %:        100   MPKI: 3.57608
LLC RFO       ACCESS:      35338  HIT:          0  MISS:      35338  HIT %:          0  MISS %:        100   MPKI: 1.41352
LLC WRITEBACK ACCESS:      35342  HIT:      35294  MISS:         48  HIT %:    99.8642  MISS %:   0.135816   MPKI: 0.00192
LLC LOAD TRANSLATION ACCESS:         72  HIT:          3  MISS:         69  HIT %:    4.16667  MISS %:    95.8333   MPKI: 0.00276
LLC PREFETCH TRANSLATION ACCESS:        211  HIT:          0  MISS:        211  HIT %:          0  MISS %:        100   MPKI: 0.00844
LLC PREFETCH  REQUESTED:          0  ISSUED:          0  USEFUL:          3  USELESS:        200
LLC USEFUL LOAD PREFETCHES:          3 PREFETCH ISSUED TO LOWER LEVEL:          0  ACCURACY: inf
LLC TIMELY PREFETCHES:          3 LATE PREFETCHES: 0 DROPPED PREFETCHES: 0
LLC PREFETCHES SAME FILL-ORIGIN LEVEL: 0 DIFFERENT FILL-ORIGIN LEVEL: 0
LLC AVERAGE MISS LATENCY: 173.889 cycles
LLC RQ	ACCESS:     125024	FORWARD:          0	MERGED:          0	TO_CACHE:     125024
LLC WQ	ACCESS:      35342	FORWARD:          0	MERGED:          0	TO_CACHE:      35342

LLC Dense regions hint to LLC: 0

RAW hits: 1738629
Loads Generated: 14515378
Loads sent to L1D: 12776746
Stores Generated: 4203877
Stores sent to L1D: 4203877
Major fault: 0 Minor fault: 2808
Allocated PAGES: 2808
CPU 0 STLB arbitrary stride prefetcher final stats

DRAM Statistics
 CHANNEL 0
 RQ ROW_BUFFER_HIT:      32376  ROW_BUFFER_MISS:      92644
 DBUS_CONGESTED:         79
 WQ ROW_BUFFER_HIT:       8333  ROW_BUFFER_MISS:      29065  FULL:          0

 AVG_CONGESTED_CYCLE: 5
 All warmup complete: 2
Channel 0 Bank busy for read cycles: 0
Channel 0 Bank busy for write cycles: 0
Channel 0
Rank 0
0banks busy for read cycles: 21874552
0banks busy for write cycles: 15703
1banks busy for read cycles: 7644416
1banks busy for write cycles: 2448548
2banks busy for read cycles: 1292032
2banks busy for write cycles: 522437
3banks busy for read cycles: 566576
3banks busy for write cycles: 363214
4banks busy for read cycles: 692266
4banks busy for write cycles: 252998
5banks busy for read cycles: 162632
5banks busy for write cycles: 152249
6banks busy for read cycles: 1525
6banks busy for write cycles: 37034
7banks busy for read cycles: 91
7banks busy for write cycles: 35111
8banks busy for read cycles: 0
8banks busy for write cycles: 138472

CPU 0 Branch Prediction Accuracy: 99.1679% MPKI: 0.01024 Average ROB Occupancy at Mispredict: 348.742
Branch types
NOT_BRANCH: 24969238 99.8769%
BRANCH_DIRECT_JUMP: 252 0.001008%
BRANCH_INDIRECT: 0 0%
BRANCH_CONDITIONAL: 30513 0.122052%
BRANCH_DIRECT_CALL: 0 0%
BRANCH_INDIRECT_CALL: 0 0%
BRANCH_RETURN: 0 0%
BRANCH_OTHER: 0 0%

DRAM PAGES: 1048576
Allocated PAGES: 2808
