
*** ChampSim Multicore Out-of-Order Simulator ***

Warmup Instructions: 25000000
Simulation Instructions: 25000000
Number of CPUs: 1
LLC sets: 2048
LLC ways: 16
Off-chip DRAM Size: 4096 MB Channels: 1 Width: 64-bit Data Rate: 6400 MT/s
CPU 0 runs ../../../../../traces/sssp-14.trace.gz
.gz
CPU 0 Bimodal branch predictor
BTB has LRU replacement policy
ITLB has LRU replacement policy
DTLB has LRU replacement policy
CPU 0 STLB arbitrary stride prefetcher
STLB has LRU replacement policy
L1I has LRU replacement policy
L1D has LRU replacement policy
L2C has LRU replacement policy
LLC has LRU replacement policy
Heartbeat CPU 0 instructions: 10000000 cycles: 3084441 heartbeat IPC: 3.24208 cumulative IPC: 3.24208 (Simulation time: 0 hr 0 min 11 sec) 
Heartbeat CPU 0 instructions: 20000003 cycles: 6135792 heartbeat IPC: 3.27724 cumulative IPC: 3.25956 (Simulation time: 0 hr 0 min 22 sec) 

Warmup complete CPU 0 instructions: 25000002 cycles: 7672678 (Simulation time: 0 hr 0 min 28 sec) 

Heartbeat CPU 0 instructions: 30000001 cycles: 26973814 heartbeat IPC: 0.479892 cumulative IPC: 0.259052 (Simulation time: 0 hr 0 min 36 sec) 
Heartbeat CPU 0 instructions: 40000003 cycles: 64282993 heartbeat IPC: 0.268031 cumulative IPC: 0.264969 (Simulation time: 0 hr 0 min 53 sec) 
Heartbeat CPU 0 instructions: 50000000 cycles: 99392455 heartbeat IPC: 0.284823 cumulative IPC: 0.272569 (Simulation time: 0 hr 1 min 10 sec) 
Finished CPU 0 instructions: 25000002 cycles: 91719778 cumulative IPC: 0.272569 (Simulation time: 0 hr 1 min 10 sec) 

ChampSim completed all CPUs

Region of Interest Statistics

CPU 0 cumulative IPC: 0.272569 instructions: 25000002 cycles: 91719778
ITLB TOTAL     ACCESS:    2533702  HIT:    2533702  MISS:          0  HIT %:        100  MISS %:          0   MPKI: 0
ITLB LOAD TRANSLATION ACCESS:    2533702  HIT:    2533702  MISS:          0  HIT %:        100  MISS %:          0   MPKI: 0
ITLB PREFETCH  REQUESTED:          0  ISSUED:          0  USEFUL:          0  USELESS:          0
ITLB USEFUL LOAD PREFETCHES:          0 PREFETCH ISSUED TO LOWER LEVEL:          0  ACCURACY: -nan
ITLB TIMELY PREFETCHES:          0 LATE PREFETCHES: 0 DROPPED PREFETCHES: 0
ITLB PREFETCHES SAME FILL-ORIGIN LEVEL: 0 DIFFERENT FILL-ORIGIN LEVEL: 0
ITLB AVERAGE MISS LATENCY: -nan cycles
ITLB RQ	ACCESS:    2724343	FORWARD:          0	MERGED:     190641	TO_CACHE:    2533702

DTLB TOTAL     ACCESS:    4835622  HIT:    4425017  MISS:     410605  HIT %:    91.5087  MISS %:    8.49126   MPKI: 16.4242
DTLB LOAD TRANSLATION ACCESS:    4835622  HIT:    4425017  MISS:     410605  HIT %:    91.5087  MISS %:    8.49126   MPKI: 16.4242
DTLB PREFETCH  REQUESTED:          0  ISSUED:          0  USEFUL:          0  USELESS:          0
DTLB USEFUL LOAD PREFETCHES:          0 PREFETCH ISSUED TO LOWER LEVEL:          0  ACCURACY: -nan
DTLB TIMELY PREFETCHES:          0 LATE PREFETCHES: 0 DROPPED PREFETCHES: 0
DTLB PREFETCHES SAME FILL-ORIGIN LEVEL: 0 DIFFERENT FILL-ORIGIN LEVEL: 0
DTLB AVERAGE MISS LATENCY: 11.9567 cycles
DTLB RQ	ACCESS:    5491097	FORWARD:          0	MERGED:     642451	TO_CACHE:    4848646

STLB TOTAL     ACCESS:     425835  HIT:     416070  MISS:       9765  HIT %:    97.7069  MISS %:    2.29314   MPKI: 0.3906
STLB LOAD TRANSLATION ACCESS:     410605  HIT:     404104  MISS:       6501  HIT %:    98.4167  MISS %:    1.58327   MPKI: 0.26004
STLB PREFETCH TRANSLATION ACCESS:      ss  HIT:      11966  MISS:       3264  HIT %:    78.5686  MISS %:    21.4314   MPKI: 0.13056
STLB PREFETCH  REQUESTED:      29952  ISSUED:      29952  USEFUL:        607  USELESS:       2553
STLB USEFUL LOAD PREFETCHES:        607 PREFETCH ISSUED TO LOWER LEVEL:      17831  ACCURACY: 3.40418
STLB TIMELY PREFETCHES:        607 LATE PREFETCHES: 12 DROPPED PREFETCHES: 14555
STLB PREFETCHES SAME FILL-ORIGIN LEVEL: 17831 DIFFERENT FILL-ORIGIN LEVEL: 0
STLB AVERAGE MISS LATENCY: 167.365 cycles
STLB RQ	ACCESS:     410605	FORWARD:          0	MERGED:          0	TO_CACHE:     410605
STLB PQ	ACCESS:      29952	FORWARD:          0	MERGED:        112	TO_CACHE:      29840

STLB Hit, L1D data hit: 0
STLB Hit, L2C data hit: 0
STLB Hit, LLC data hit: 0
STLB Hit, LLC data miss: 0
STLB STLB hints to L2: 0
L1D TOTAL     ACCESS:    5061206  HIT:    3730816  MISS:    1330390  HIT %:     73.714  MISS %:     26.286   MPKI: 53.2156
L1D LOAD      ACCESS:    4471863  HIT:    3273154  MISS:    1198709  HIT %:    73.1944  MISS %:    26.8056   MPKI: 47.9484
L1D RFO       ACCESS:     589343  HIT:     457662  MISS:     131681  HIT %:    77.6563  MISS %:    22.3437   MPKI: 5.26724
L1D PREFETCH  REQUESTED:          0  ISSUED:          0  USEFUL:          0  USELESS:          0
L1D USEFUL LOAD PREFETCHES:          0 PREFETCH ISSUED TO LOWER LEVEL:          0  ACCURACY: -nan
L1D TIMELY PREFETCHES:          0 LATE PREFETCHES: 0 DROPPED PREFETCHES: 0
L1D PREFETCHES SAME FILL-ORIGIN LEVEL: 0 DIFFERENT FILL-ORIGIN LEVEL: 0
L1D AVERAGE MISS LATENCY: 96.9389 cycles
L1D RQ	ACCESS:    9065613	FORWARD:          0	MERGED:    4214049	TO_CACHE:    4851544
L1D WQ	ACCESS:     639920	FORWARD:         20	MERGED:        367	TO_CACHE:     639553

L1D UNIQUE REGIONS ACCESSED: 0
L1D REGIONS CONFLICTS: 0
L1D Cross Page Prefetch Requests: 0
L1D Same Page Prefetch Requests: 0
L1D ROI Sum of L1D PQ occupancy: 0
L1D PREFETCHES PUSHED FROM L2C: 0
L1I TOTAL     ACCESS:    2724343  HIT:    2724343  MISS:          0  HIT %:        100  MISS %:          0   MPKI: 0
L1I LOAD      ACCESS:    2724343  HIT:    2724343  MISS:          0  HIT %:        100  MISS %:          0   MPKI: 0
L1I PREFETCH  REQUESTED:          0  ISSUED:          0  USEFUL:          0  USELESS:          0
L1I USEFUL LOAD PREFETCHES:          0 PREFETCH ISSUED TO LOWER LEVEL:          0  ACCURACY: -nan
L1I TIMELY PREFETCHES:          0 LATE PREFETCHES: 0 DROPPED PREFETCHES: 0
L1I PREFETCHES SAME FILL-ORIGIN LEVEL: 0 DIFFERENT FILL-ORIGIN LEVEL: 0
L1I AVERAGE MISS LATENCY: -nan cycles
L1I RQ	ACCESS:    4595857	FORWARD:          0	MERGED:    1871514	TO_CACHE:    2724343

BTB TOTAL     ACCESS:    3484640  HIT:    3484517  MISS:        123  HIT %:    99.9965  MISS %: 0.00352978   MPKI: 0.00492
BTB BRANCH_DIRECT_JUMP	ACCESS:    1031131  HIT:    1031096  MISS:         35
BTB BRANCH_INDIRECT	ACCESS:          0  HIT:          0  MISS:          0
BTB BRANCH_CONDITIONAL	ACCESS:    2451943  HIT:    2451870  MISS:         73
BTB BRANCH_DIRECT_CALL	ACCESS:        783  HIT:        777  MISS:          6
BTB BRANCH_INDIRECT_CALL	ACCESS:          0  HIT:          0  MISS:          0
BTB BRANCH_RETURN	ACCESS:        783  HIT:        774  MISS:          9
BTB BRANCH_OTHER ACCESS:          0  HIT:          0  MISS:          0

L2C TOTAL     ACCESS:    1729513  HIT:     742613  MISS:     986900  HIT %:    42.9377  MISS %:    57.0623   MPKI: 39.476
L2C LOAD      ACCESS:    1198708  HIT:     250370  MISS:     948338  HIT %:    20.8867  MISS %:    79.1133   MPKI: 37.9335
L2C DATA LOAD MPKI: 37.9335
L2C INSTRUCTION LOAD MPKI: 0
L2C RFO       ACCESS:     131679  HIT:      98043  MISS:      33636  HIT %:    74.4561  MISS %:    25.5439   MPKI: 1.34544
L2C WRITEBACK ACCESS:     373950  HIT:     373771  MISS:        179  HIT %:    99.9521  MISS %:  0.0478674   MPKI: 0.00716
L2C LOAD TRANSLATION ACCESS:       7345  HIT:       2601  MISS:       4744  HIT %:    35.4118  MISS %:    64.5882   MPKI: 0.18976
L2C PREFETCH TRANSLATION ACCESS:      17831  HIT:      17828  MISS:          3  HIT %:    99.9832  MISS %:  0.0168246   MPKI: 0.00012
L2C PREFETCH  REQUESTED:          0  ISSUED:          0  USEFUL:          3  USELESS:          0
L2C USEFUL LOAD PREFETCHES:          3 PREFETCH ISSUED TO LOWER LEVEL:          0  ACCURACY: inf
L2C TIMELY PREFETCHES:          3 LATE PREFETCHES: 0 DROPPED PREFETCHES: 0
L2C PREFETCHES SAME FILL-ORIGIN LEVEL: 0 DIFFERENT FILL-ORIGIN LEVEL: 0
L2C AVERAGE MISS LATENCY: 114.841 cycles
L2C RQ	ACCESS:    1355566	FORWARD:          0	MERGED:          0	TO_CACHE:    1355563
L2C WQ	ACCESS:     373950	FORWARD:          3	MERGED:          0	TO_CACHE:     373950

L2C Instructions Evicting Data 0
L2C Translations Evicting Data 4734
L2C Data Evicting Data 977258
L2C Instructions Evicting Instructions 0
L2C Translations Evicting Instructions 0
L2C Data Evicting Instructions 0
L2C Instructions Evicting Translations 0
L2C Translations Evicting Translations 13
L2C Data Evicting Translations 4716
L2C Dense regions hint from L2: 0
PSCL5 TOTAL     ACCESS:      24323  HIT:      24323  MISS:          0  HIT %:        100  MISS %:          0   MPKI: 0
PSCL5 LOAD TRANSLATION ACCESS:       6492  HIT:       6492  MISS:          0  HIT %:        100  MISS %:          0   MPKI: 0
PSCL5 PREFETCH TRANSLATION ACCESS:      17831  HIT:      17831  MISS:          0  HIT %:        100  MISS %:          0   MPKI: 0
PSCL5 PREFETCH  REQUESTED:          0  ISSUED:          0  USEFUL:          0  USELESS:          0
PSCL5 USEFUL LOAD PREFETCHES:          0 PREFETCH ISSUED TO LOWER LEVEL:          0  ACCURACY: -nan
PSCL5 TIMELY PREFETCHES:          0 LATE PREFETCHES: 0 DROPPED PREFETCHES: 0
PSCL5 PREFETCHES SAME FILL-ORIGIN LEVEL: 0 DIFFERENT FILL-ORIGIN LEVEL: 0

PSCL4 TOTAL     ACCESS:      24323  HIT:      24323  MISS:          0  HIT %:        100  MISS %:          0   MPKI: 0
PSCL4 LOAD TRANSLATION ACCESS:       6492  HIT:       6492  MISS:          0  HIT %:        100  MISS %:          0   MPKI: 0
PSCL4 PREFETCH TRANSLATION ACCESS:      17831  HIT:      17831  MISS:          0  HIT %:        100  MISS %:          0   MPKI: 0
PSCL4 PREFETCH  REQUESTED:          0  ISSUED:          0  USEFUL:          0  USELESS:          0
PSCL4 USEFUL LOAD PREFETCHES:          0 PREFETCH ISSUED TO LOWER LEVEL:          0  ACCURACY: -nan
PSCL4 TIMELY PREFETCHES:          0 LATE PREFETCHES: 0 DROPPED PREFETCHES: 0
PSCL4 PREFETCHES SAME FILL-ORIGIN LEVEL: 0 DIFFERENT FILL-ORIGIN LEVEL: 0

PSCL3 TOTAL     ACCESS:      24323  HIT:      24323  MISS:          0  HIT %:        100  MISS %:          0   MPKI: 0
PSCL3 LOAD TRANSLATION ACCESS:       6492  HIT:       6492  MISS:          0  HIT %:        100  MISS %:          0   MPKI: 0
PSCL3 PREFETCH TRANSLATION ACCESS:      17831  HIT:      17831  MISS:          0  HIT %:        100  MISS %:          0   MPKI: 0
PSCL3 PREFETCH  REQUESTED:          0  ISSUED:          0  USEFUL:          0  USELESS:          0
PSCL3 USEFUL LOAD PREFETCHES:          0 PREFETCH ISSUED TO LOWER LEVEL:          0  ACCURACY: -nan
PSCL3 TIMELY PREFETCHES:          0 LATE PREFETCHES: 0 DROPPED PREFETCHES: 0
PSCL3 PREFETCHES SAME FILL-ORIGIN LEVEL: 0 DIFFERENT FILL-ORIGIN LEVEL: 0

PSCL2 TOTAL     ACCESS:      24323  HIT:      23467  MISS:        856  HIT %:    96.4807  MISS %:     3.5193   MPKI: 0.03424
PSCL2 LOAD TRANSLATION ACCESS:       6492  HIT:       5636  MISS:        856  HIT %:    86.8145  MISS %:    13.1855   MPKI: 0.03424
PSCL2 PREFETCH TRANSLATION ACCESS:      17831  HIT:      17831  MISS:          0  HIT %:        100  MISS %:          0   MPKI: 0
PSCL2 PREFETCH  REQUESTED:          0  ISSUED:          0  USEFUL:          0  USELESS:          0
PSCL2 USEFUL LOAD PREFETCHES:          0 PREFETCH ISSUED TO LOWER LEVEL:          0  ACCURACY: -nan
PSCL2 TIMELY PREFETCHES:          0 LATE PREFETCHES: 0 DROPPED PREFETCHES: 0
PSCL2 PREFETCHES SAME FILL-ORIGIN LEVEL: 0 DIFFERENT FILL-ORIGIN LEVEL: 0

LLC TOTAL     ACCESS:    1206909  HIT:     675092  MISS:     531817  HIT %:    55.9356  MISS %:    44.0644   MPKI: 21.2727
LLC LOAD      ACCESS:     948338  HIT:     444632  MISS:     503706  HIT %:    46.8854  MISS %:    53.1146   MPKI: 20.1482
LLC RFO       ACCESS:      33636  HIT:       9551  MISS:      24085  HIT %:    28.3952  MISS %:    71.6048   MPKI: 0.9634
LLC WRITEBACK ACCESS:     220188  HIT:     219305  MISS:        883  HIT %:     99.599  MISS %:   0.401021   MPKI: 0.03532
LLC LOAD TRANSLATION ACCESS:       4744  HIT:       1604  MISS:       3140  HIT %:    33.8111  MISS %:    66.1889   MPKI: 0.1256
LLC PREFETCH TRANSLATION ACCESS:          3  HIT:          0  MISS:          3  HIT %:          0  MISS %:        100   MPKI: 0.00012
LLC PREFETCH  REQUESTED:          0  ISSUED:          0  USEFUL:          0  USELESS:          2
LLC USEFUL LOAD PREFETCHES:          0 PREFETCH ISSUED TO LOWER LEVEL:          0  ACCURACY: -nan
LLC TIMELY PREFETCHES:          0 LATE PREFETCHES: 0 DROPPED PREFETCHES: 0
LLC PREFETCHES SAME FILL-ORIGIN LEVEL: 0 DIFFERENT FILL-ORIGIN LEVEL: 0
LLC AVERAGE MISS LATENCY: 161.039 cycles
LLC RQ	ACCESS:     986721	FORWARD:          0	MERGED:          0	TO_CACHE:     986721
LLC WQ	ACCESS:     220189	FORWARD:          0	MERGED:          0	TO_CACHE:     220189

LLC Dense regions hint to LLC: 0

RAW hits: 5010
Loads Generated: 9070623
Loads sent to L1D: 9065613
Stores Generated: 639919
Stores sent to L1D: 639920
Major fault: 0 Minor fault: 7709
Allocated PAGES: 7709
CPU 0 STLB arbitrary stride prefetcher final stats
Degree: 8

DRAM Statistics
 CHANNEL 0
 RQ ROW_BUFFER_HIT:     112141  ROW_BUFFER_MISS:     418789
 DBUS_CONGESTED:        187
 WQ ROW_BUFFER_HIT:      64675  ROW_BUFFER_MISS:     122003  FULL:          0

 AVG_CONGESTED_CYCLE: 4
 All warmup complete: 2
Channel 0 Bank busy for read cycles: 0
Channel 0 Bank busy for write cycles: 0
Channel 0
Rank 0
0banks busy for read cycles: 18347788
0banks busy for write cycles: 76524
1banks busy for read cycles: 34845317
1banks busy for write cycles: 14162118
2banks busy for read cycles: 10158374
2banks busy for write cycles: 6617272
3banks busy for read cycles: 2590320
3banks busy for write cycles: 2513942
4banks busy for read cycles: 509134
4banks busy for write cycles: 806968
5banks busy for read cycles: 101290
5banks busy for write cycles: 235696
6banks busy for read cycles: 72522
6banks busy for write cycles: 74732
7banks busy for read cycles: 79288
7banks busy for write cycles: 58472
8banks busy for read cycles: 263800
8banks busy for write cycles: 206222

CPU 0 Branch Prediction Accuracy: 94.0604% MPKI: 8.75416 Average ROB Occupancy at Mispredict: 79.582
Branch types
NOT_BRANCH: 21315002 85.26%
BRANCH_DIRECT_JUMP: 1031131 4.12452%
BRANCH_INDIRECT: 0 0%
BRANCH_CONDITIONAL: 2651937 10.6077%
BRANCH_DIRECT_CALL: 783 0.003132%
BRANCH_INDIRECT_CALL: 0 0%
BRANCH_RETURN: 783 0.003132%
BRANCH_OTHER: 0 0%

DRAM PAGES: 1048576
Allocated PAGES: 7709
