
*** ChampSim Multicore Out-of-Order Simulator ***

Warmup Instructions: 25000000
Simulation Instructions: 25000000
Number of CPUs: 1
LLC sets: 2048
LLC ways: 16
Off-chip DRAM Size: 4096 MB Channels: 1 Width: 64-bit Data Rate: 6400 MT/s
CPU 0 runs ../../../../../traces/436.cactusADM-1804B.champsimtrace.xz
.xz
CPU 0 Bimodal branch predictor
BTB has LRU replacement policy
ITLB has LRU replacement policy
DTLB has LRU replacement policy
CPU 0 STLB arbitrary stride prefetcher
STLB has LRU replacement policy
L1I has LRU replacement policy
L1D has LRU replacement policy
L2C has LRU replacement policy
LLC has LRU replacement policy
Heartbeat CPU 0 instructions: 10000000 cycles: 3900218 heartbeat IPC: 2.56396 cumulative IPC: 2.56396 (Simulation time: 0 hr 0 min 17 sec) 
Heartbeat CPU 0 instructions: 20000002 cycles: 7949656 heartbeat IPC: 2.46948 cumulative IPC: 2.51583 (Simulation time: 0 hr 0 min 35 sec) 

Warmup complete CPU 0 instructions: 25000003 cycles: 9899236 (Simulation time: 0 hr 0 min 44 sec) 

Heartbeat CPU 0 instructions: 30000000 cycles: 16463453 heartbeat IPC: 1.17456 cumulative IPC: 0.761705 (Simulation time: 0 hr 0 min 56 sec) 
Heartbeat CPU 0 instructions: 40000002 cycles: 29443474 heartbeat IPC: 0.770415 cumulative IPC: 0.76749 (Simulation time: 0 hr 1 min 20 sec) 
Heartbeat CPU 0 instructions: 50000001 cycles: 45454685 heartbeat IPC: 0.624562 cumulative IPC: 0.703127 (Simulation time: 0 hr 1 min 46 sec) 
Finished CPU 0 instructions: 25000003 cycles: 35555452 cumulative IPC: 0.703127 (Simulation time: 0 hr 1 min 46 sec) 

ChampSim completed all CPUs

Region of Interest Statistics

CPU 0 cumulative IPC: 0.703127 instructions: 25000003 cycles: 35555452
ITLB TOTAL     ACCESS:    4422355  HIT:    4422355  MISS:          0  HIT %:        100  MISS %:          0   MPKI: 0
ITLB LOAD TRANSLATION ACCESS:    4422355  HIT:    4422355  MISS:          0  HIT %:        100  MISS %:          0   MPKI: 0
ITLB PREFETCH  REQUESTED:          0  ISSUED:          0  USEFUL:          0  USELESS:          0
ITLB USEFUL LOAD PREFETCHES:          0 PREFETCH ISSUED TO LOWER LEVEL:          0  ACCURACY: -nan
ITLB TIMELY PREFETCHES:          0 LATE PREFETCHES: 0 DROPPED PREFETCHES: 0
ITLB PREFETCHES SAME FILL-ORIGIN LEVEL: 0 DIFFERENT FILL-ORIGIN LEVEL: 0
ITLB AVERAGE MISS LATENCY: -nan cycles
ITLB RQ	ACCESS:    4998942	FORWARD:          0	MERGED:     576588	TO_CACHE:    4422354

DTLB TOTAL     ACCESS:    7295152  HIT:    6679087  MISS:     616065  HIT %:    91.5551  MISS %:    8.44485   MPKI: 24.6426
DTLB LOAD TRANSLATION ACCESS:    7295152  HIT:    6679087  MISS:     616065  HIT %:    91.5551  MISS %:    8.44485   MPKI: 24.6426
DTLB PREFETCH  REQUESTED:          0  ISSUED:          0  USEFUL:          0  USELESS:          0
DTLB USEFUL LOAD PREFETCHES:          0 PREFETCH ISSUED TO LOWER LEVEL:          0  ACCURACY: -nan
DTLB TIMELY PREFETCHES:          0 LATE PREFETCHES: 0 DROPPED PREFETCHES: 0
DTLB PREFETCHES SAME FILL-ORIGIN LEVEL: 0 DIFFERENT FILL-ORIGIN LEVEL: 0
DTLB AVERAGE MISS LATENCY: 28.8886 cycles
DTLB RQ	ACCESS:   11813622	FORWARD:          0	MERGED:    4510485	TO_CACHE:    7303137

STLB TOTAL     ACCESS:     631935  HIT:     355332  MISS:     276603  HIT %:    56.2292  MISS %:    43.7708   MPKI: 11.0641
STLB LOAD TRANSLATION ACCESS:     616065  HIT:     339685  MISS:     276380  HIT %:    55.1379  MISS %:    44.8621   MPKI: 11.0552
STLB PREFETCH TRANSLATION ACCESS:      15870  HIT:      15647  MISS:        223  HIT %:    98.5948  MISS %:    1.40517   MPKI: 0.00892
STLB PREFETCH  REQUESTED:     243832  ISSUED:     243832  USEFUL:        167  USELESS:         49
STLB USEFUL LOAD PREFETCHES:        167 PREFETCH ISSUED TO LOWER LEVEL:     184165  ACCURACY: 0.0906796
STLB TIMELY PREFETCHES:        167 LATE PREFETCHES: 11 DROPPED PREFETCHES: 183931
STLB PREFETCHES SAME FILL-ORIGIN LEVEL: 184165 DIFFERENT FILL-ORIGIN LEVEL: 0
STLB AVERAGE MISS LATENCY: 35.6506 cycles
STLB RQ	ACCESS:     616065	FORWARD:          0	MERGED:          0	TO_CACHE:     616065
STLB PQ	ACCESS:     243832	FORWARD:          0	MERGED:      43978	TO_CACHE:     199854

STLB Hit, L1D data hit: 0
STLB Hit, L2C data hit: 0
STLB Hit, LLC data hit: 0
STLB Hit, LLC data miss: 0
STLB STLB hints to L2: 0
L1D TOTAL     ACCESS:   11791518  HIT:   11596132  MISS:     195386  HIT %:     98.343  MISS %:      1.657   MPKI: 7.81544
L1D LOAD      ACCESS:    7883981  HIT:    7723935  MISS:     160046  HIT %:      97.97  MISS %:    2.03002   MPKI: 6.40184
L1D RFO       ACCESS:    3907537  HIT:    3872197  MISS:      35340  HIT %:    99.0956  MISS %:   0.904406   MPKI: 1.4136
L1D PREFETCH  REQUESTED:          0  ISSUED:          0  USEFUL:          0  USELESS:          0
L1D USEFUL LOAD PREFETCHES:          0 PREFETCH ISSUED TO LOWER LEVEL:          0  ACCURACY: -nan
L1D TIMELY PREFETCHES:          0 LATE PREFETCHES: 0 DROPPED PREFETCHES: 0
L1D PREFETCHES SAME FILL-ORIGIN LEVEL: 0 DIFFERENT FILL-ORIGIN LEVEL: 0
L1D AVERAGE MISS LATENCY: 143.369 cycles
L1D RQ	ACCESS:   12774056	FORWARD:          0	MERGED:    4818875	TO_CACHE:    7884848
L1D WQ	ACCESS:    4203877	FORWARD:      70333	MERGED:     275103	TO_CACHE:    3928774

L1D UNIQUE REGIONS ACCESSED: 0
L1D REGIONS CONFLICTS: 0
L1D Cross Page Prefetch Requests: 0
L1D Same Page Prefetch Requests: 0
L1D ROI Sum of L1D PQ occupancy: 0
L1D PREFETCHES PUSHED FROM L2C: 0
L1I TOTAL     ACCESS:    4998943  HIT:    4998943  MISS:          0  HIT %:        100  MISS %:          0   MPKI: 0
L1I LOAD      ACCESS:    4998943  HIT:    4998943  MISS:          0  HIT %:        100  MISS %:          0   MPKI: 0
L1I PREFETCH  REQUESTED:          0  ISSUED:          0  USEFUL:          0  USELESS:          0
L1I USEFUL LOAD PREFETCHES:          0 PREFETCH ISSUED TO LOWER LEVEL:          0  ACCURACY: -nan
L1I TIMELY PREFETCHES:          0 LATE PREFETCHES: 0 DROPPED PREFETCHES: 0
L1I PREFETCHES SAME FILL-ORIGIN LEVEL: 0 DIFFERENT FILL-ORIGIN LEVEL: 0
L1I AVERAGE MISS LATENCY: -nan cycles
L1I RQ	ACCESS:    7237475	FORWARD:          0	MERGED:    2238533	TO_CACHE:    4998942

BTB TOTAL     ACCESS:      30391  HIT:      30384  MISS:          7  HIT %:     99.977  MISS %:  0.0230331   MPKI: 0.00028
BTB BRANCH_DIRECT_JUMP	ACCESS:        252  HIT:        250  MISS:          2
BTB BRANCH_INDIRECT	ACCESS:          0  HIT:          0  MISS:          0
BTB BRANCH_CONDITIONAL	ACCESS:      30139  HIT:      30134  MISS:          5
BTB BRANCH_DIRECT_CALL	ACCESS:          0  HIT:          0  MISS:          0
BTB BRANCH_INDIRECT_CALL	ACCESS:          0  HIT:          0  MISS:          0
BTB BRANCH_RETURN	ACCESS:          0  HIT:          0  MISS:          0
BTB BRANCH_OTHER ACCESS:          0  HIT:          0  MISS:          0

L2C TOTAL     ACCESS:     964093  HIT:     839080  MISS:     125013  HIT %:    87.0331  MISS %:    12.9669   MPKI: 5.00052
L2C LOAD      ACCESS:     160046  HIT:      70644  MISS:      89402  HIT %:    44.1398  MISS %:    55.8602   MPKI: 3.57608
L2C DATA LOAD MPKI: 3.57608
L2C INSTRUCTION LOAD MPKI: 0
L2C RFO       ACCESS:      35340  HIT:          2  MISS:      35338  HIT %: 0.00565931  MISS %:    99.9943   MPKI: 1.41352
L2C WRITEBACK ACCESS:      36999  HIT:      36961  MISS:         38  HIT %:    99.8973  MISS %:   0.102705   MPKI: 0.00152
L2C LOAD TRANSLATION ACCESS:     535124  HIT:     534889  MISS:        235  HIT %:    99.9561  MISS %:  0.0439151   MPKI: 0.0094
L2C PREFETCH TRANSLATION ACCESS:     196584  HIT:     196584  MISS:          0  HIT %:        100  MISS %:          0   MPKI: 0
L2C PREFETCH  REQUESTED:          0  ISSUED:          0  USEFUL:          0  USELESS:          0
L2C USEFUL LOAD PREFETCHES:          0 PREFETCH ISSUED TO LOWER LEVEL:          0  ACCURACY: -nan
L2C TIMELY PREFETCHES:          0 LATE PREFETCHES: 0 DROPPED PREFETCHES: 0
L2C PREFETCHES SAME FILL-ORIGIN LEVEL: 0 DIFFERENT FILL-ORIGIN LEVEL: 0
L2C AVERAGE MISS LATENCY: 205.043 cycles
L2C RQ	ACCESS:     927095	FORWARD:          0	MERGED:          0	TO_CACHE:     927095
L2C WQ	ACCESS:      36999	FORWARD:          0	MERGED:          0	TO_CACHE:      36999

L2C Instructions Evicting Data 0
L2C Translations Evicting Data 235
L2C Data Evicting Data 124504
L2C Instructions Evicting Instructions 0
L2C Translations Evicting Instructions 0
L2C Data Evicting Instructions 0
L2C Instructions Evicting Translations 0
L2C Translations Evicting Translations 0
L2C Data Evicting Translations 236
L2C Dense regions hint from L2: 0
PSCL5 TOTAL     ACCESS:     460545  HIT:     460545  MISS:          0  HIT %:        100  MISS %:          0   MPKI: 0
PSCL5 LOAD TRANSLATION ACCESS:     276380  HIT:     276380  MISS:          0  HIT %:        100  MISS %:          0   MPKI: 0
PSCL5 PREFETCH TRANSLATION ACCESS:     184165  HIT:     184165  MISS:          0  HIT %:        100  MISS %:          0   MPKI: 0
PSCL5 PREFETCH  REQUESTED:          0  ISSUED:          0  USEFUL:          0  USELESS:          0
PSCL5 USEFUL LOAD PREFETCHES:          0 PREFETCH ISSUED TO LOWER LEVEL:          0  ACCURACY: -nan
PSCL5 TIMELY PREFETCHES:          0 LATE PREFETCHES: 0 DROPPED PREFETCHES: 0
PSCL5 PREFETCHES SAME FILL-ORIGIN LEVEL: 0 DIFFERENT FILL-ORIGIN LEVEL: 0

PSCL4 TOTAL     ACCESS:     460545  HIT:     460545  MISS:          0  HIT %:        100  MISS %:          0   MPKI: 0
PSCL4 LOAD TRANSLATION ACCESS:     276380  HIT:     276380  MISS:          0  HIT %:        100  MISS %:          0   MPKI: 0
PSCL4 PREFETCH TRANSLATION ACCESS:     184165  HIT:     184165  MISS:          0  HIT %:        100  MISS %:          0   MPKI: 0
PSCL4 PREFETCH  REQUESTED:          0  ISSUED:          0  USEFUL:          0  USELESS:          0
PSCL4 USEFUL LOAD PREFETCHES:          0 PREFETCH ISSUED TO LOWER LEVEL:          0  ACCURACY: -nan
PSCL4 TIMELY PREFETCHES:          0 LATE PREFETCHES: 0 DROPPED PREFETCHES: 0
PSCL4 PREFETCHES SAME FILL-ORIGIN LEVEL: 0 DIFFERENT FILL-ORIGIN LEVEL: 0

PSCL3 TOTAL     ACCESS:     460545  HIT:     460545  MISS:          0  HIT %:        100  MISS %:          0   MPKI: 0
PSCL3 LOAD TRANSLATION ACCESS:     276380  HIT:     276380  MISS:          0  HIT %:        100  MISS %:          0   MPKI: 0
PSCL3 PREFETCH TRANSLATION ACCESS:     184165  HIT:     184165  MISS:          0  HIT %:        100  MISS %:          0   MPKI: 0
PSCL3 PREFETCH  REQUESTED:          0  ISSUED:          0  USEFUL:          0  USELESS:          0
PSCL3 USEFUL LOAD PREFETCHES:          0 PREFETCH ISSUED TO LOWER LEVEL:          0  ACCURACY: -nan
PSCL3 TIMELY PREFETCHES:          0 LATE PREFETCHES: 0 DROPPED PREFETCHES: 0
PSCL3 PREFETCHES SAME FILL-ORIGIN LEVEL: 0 DIFFERENT FILL-ORIGIN LEVEL: 0

PSCL2 TOTAL     ACCESS:     448127  HIT:     189382  MISS:     258745  HIT %:    42.2608  MISS %:    57.7392   MPKI: 10.3498
PSCL2 LOAD TRANSLATION ACCESS:     276381  HIT:      17636  MISS:     258745  HIT %:    6.38105  MISS %:     93.619   MPKI: 10.3498
PSCL2 PREFETCH TRANSLATION ACCESS:     171746  HIT:     171746  MISS:          0  HIT %:        100  MISS %:          0   MPKI: 0
PSCL2 PREFETCH  REQUESTED:          0  ISSUED:          0  USEFUL:          0  USELESS:          0
PSCL2 USEFUL LOAD PREFETCHES:          0 PREFETCH ISSUED TO LOWER LEVEL:          0  ACCURACY: -nan
PSCL2 TIMELY PREFETCHES:          0 LATE PREFETCHES: 0 DROPPED PREFETCHES: 0
PSCL2 PREFETCHES SAME FILL-ORIGIN LEVEL: 0 DIFFERENT FILL-ORIGIN LEVEL: 0

LLC TOTAL     ACCESS:     160318  HIT:      35300  MISS:     125018  HIT %:    22.0187  MISS %:    77.9813   MPKI: 5.00072
LLC LOAD      ACCESS:      89402  HIT:          0  MISS:      89402  HIT %:          0  MISS %:        100   MPKI: 3.57608
LLC RFO       ACCESS:      35338  HIT:          1  MISS:      35337  HIT %: 0.00282981  MISS %:    99.9972   MPKI: 1.41348
LLC WRITEBACK ACCESS:      35343  HIT:      35295  MISS:         48  HIT %:    99.8642  MISS %:   0.135812   MPKI: 0.00192
LLC LOAD TRANSLATION ACCESS:        235  HIT:          4  MISS:        231  HIT %:    1.70213  MISS %:    98.2979   MPKI: 0.00924
LLC PREFETCH  REQUESTED:          0  ISSUED:          0  USEFUL:          0  USELESS:          0
LLC USEFUL LOAD PREFETCHES:          0 PREFETCH ISSUED TO LOWER LEVEL:          0  ACCURACY: -nan
LLC TIMELY PREFETCHES:          0 LATE PREFETCHES: 0 DROPPED PREFETCHES: 0
LLC PREFETCHES SAME FILL-ORIGIN LEVEL: 0 DIFFERENT FILL-ORIGIN LEVEL: 0
LLC AVERAGE MISS LATENCY: 176.679 cycles
LLC RQ	ACCESS:     124976	FORWARD:          0	MERGED:          0	TO_CACHE:     124976
LLC WQ	ACCESS:      35343	FORWARD:          0	MERGED:          0	TO_CACHE:      35343

LLC Dense regions hint to LLC: 0

RAW hits: 1741319
Loads Generated: 14515378
Loads sent to L1D: 12774056
Stores Generated: 4203877
Stores sent to L1D: 4203877
Major fault: 0 Minor fault: 2808
Allocated PAGES: 2808
CPU 0 STLB arbitrary stride prefetcher final stats
Degree: 8

DRAM Statistics
 CHANNEL 0
 RQ ROW_BUFFER_HIT:      32102  ROW_BUFFER_MISS:      92868
 DBUS_CONGESTED:        104
 WQ ROW_BUFFER_HIT:       8631  ROW_BUFFER_MISS:      28802  FULL:          0

 AVG_CONGESTED_CYCLE: 5
 All warmup complete: 2
Channel 0 Bank busy for read cycles: 0
Channel 0 Bank busy for write cycles: 0
Channel 0
Rank 0
0banks busy for read cycles: 21385605
0banks busy for write cycles: 15586
1banks busy for read cycles: 7513270
1banks busy for write cycles: 2415069
2banks busy for read cycles: 1263298
2banks busy for write cycles: 505122
3banks busy for read cycles: 571742
3banks busy for write cycles: 344662
4banks busy for read cycles: 730033
4banks busy for write cycles: 247795
5banks busy for read cycles: 170255
5banks busy for write cycles: 134542
6banks busy for read cycles: 2537
6banks busy for write cycles: 34294
7banks busy for read cycles: 139
7banks busy for write cycles: 30066
8banks busy for read cycles: 0
8banks busy for write cycles: 191438

CPU 0 Branch Prediction Accuracy: 99.1679% MPKI: 0.01024 Average ROB Occupancy at Mispredict: 348.742
Branch types
NOT_BRANCH: 24969238 99.8769%
BRANCH_DIRECT_JUMP: 252 0.001008%
BRANCH_INDIRECT: 0 0%
BRANCH_CONDITIONAL: 30513 0.122052%
BRANCH_DIRECT_CALL: 0 0%
BRANCH_INDIRECT_CALL: 0 0%
BRANCH_RETURN: 0 0%
BRANCH_OTHER: 0 0%

DRAM PAGES: 1048576
Allocated PAGES: 2808
